/*---------------------------------------------------------------------------*\
  =========                 |
  \\      /  F ield         | OpenFOAM: The Open Source CFD Toolbox
   \\    /   O peration     | Website:  https://openfoam.org
    \\  /    A nd           | Version:  13
     \\/     M anipulation  |
\*---------------------------------------------------------------------------*/
Build  : 13-5599db86c70d
Exec   : foamRun
Date   : Dec 18 2025
Time   : 16:15:03
Host   : "74dba669244d"
PID    : 14202
I/O    : uncollated
Case   : /home/student/OpenFOAM/student-13/run/aeroHPC/OpenFOAM/test/chemistry/air11
nProcs : 1
sigFpe : Enabling floating point exception trapping (FOAM_SIGFPE).
fileModificationChecking : Monitoring run-time modified files using timeStampMaster (fileModificationSkew 10)
allowSystemOperations : Allowing user-supplied system call operations

// * * * * * * * * * * * * * * * * * * * * * * * * * * * * * * * * * * * * * //
Create time

Create mesh for time = 0

Selecting solver shockThermo
Selecting thermodynamics package 
{
    type            highEnthalpyThermo;
    mixture         multicomponentMixture;
    transport       sutherland;
    thermo          janaf;
    energy          sensibleInternalEnergy;
    equationOfState perfectGas;
    specie          specie;
}

highEnthalpyMulticomponentThermo::composite - constructor
Initializing mutationMixture with mechanism: air_5
mutationMixture initialized with 3 vibrational species
Relaxation time step: 1e-08 s
Selecting turbulence model type laminar
    Selecting laminar stress model Stokes
Selecting thermophysical transport type laminar
Selecting default laminar thermophysical transport model unityLewisFourier
Courant Number mean: 13.7235 max: 13.7235
Combustion model not active: combustionProperties not found
Selecting combustion model none
Selecting thermophysical transport type laminar
Selecting default laminar thermophysical transport model unityLewisFourier

PIMPLE: No convergence criteria found


PIMPLE: Operating solver in transient mode with 1 outer corrector
PIMPLE: Operating solver in PISO mode



Starting time loop

Courant Number mean: 13.7235 max: 13.7235
deltaT = 1.11111e-05
Time = 1.11111e-05s

    Solving thermophysical equations
    Correcting high enthalpy thermodynamics
highEnthalpyMulticomponentThermo::composite::correct() called
ExecutionTime = 0.069118 s  ClockTime = 0 s

Courant Number mean: 15.2483 max: 15.2483
deltaT = 1.26984e-05
Time = 2.38095e-05s

    Solving thermophysical equations
    Correcting high enthalpy thermodynamics
highEnthalpyMulticomponentThermo::composite::correct() called
#0  Foam::error::printStack(Foam::Ostream&) at ??:?
#1  Foam::sigFpe::sigHandler(int) at ??:?
#2  ? in "/lib/x86_64-linux-gnu/libc.so.6"
#3  ? in "/lib/x86_64-linux-gnu/libm.so.6"
#4  exp in "/lib/x86_64-linux-gnu/libm.so.6"
#5  Mutation::Thermodynamics::HarmonicOscillator::energy(double) const at ~/OpenFOAM/student-13/run/aeroHPC/OpenFOAM/thirdParty/Mutationpp/src/thermo/HarmonicOscillator.cpp:39 (discriminator 1)
#6  Mutation::Transfer::OmegaVT::source() at ~/OpenFOAM/student-13/run/aeroHPC/OpenFOAM/thirdParty/Mutationpp/src/transfer/OmegaVT.cpp:62
#7  mutationMixture::step(double, double, std::vector<double, std::allocator<double> > const&, double&, double&, double&, double&) at ??:?
#8  Foam::highEnthalpyMulticomponentThermo::composite::correct_he() at ??:?
#9  Foam::solvers::shockThermo::thermophysicalPredictor() at ??:?
#10  ? in "/home/student/OpenFOAM/OpenFOAM-13/platforms/linux64GccDPInt32Opt/bin/foamRun"
#11  ? in "/lib/x86_64-linux-gnu/libc.so.6"
#12  __libc_start_main in "/lib/x86_64-linux-gnu/libc.so.6"
#13  ? in "/home/student/OpenFOAM/OpenFOAM-13/platforms/linux64GccDPInt32Opt/bin/foamRun"
Floating point exception (core dumped)
