/*---------------------------------------------------------------------------*\
  =========                 |
  \\      /  F ield         | OpenFOAM: The Open Source CFD Toolbox
   \\    /   O peration     | Website:  https://openfoam.org
    \\  /    A nd           | Version:  13
     \\/     M anipulation  |
\*---------------------------------------------------------------------------*/
Build  : 13-5599db86c70d
Exec   : foamRun
Date   : Dec 03 2025
Time   : 13:21:10
Host   : "2815b2b075c7"
PID    : 9290
I/O    : uncollated
Case   : /home/student/OpenFOAM/student-13/run/aeroHPC/OpenFOAM/test/chemistry/air11
nProcs : 1
sigFpe : Enabling floating point exception trapping (FOAM_SIGFPE).
fileModificationChecking : Monitoring run-time modified files using timeStampMaster (fileModificationSkew 10)
allowSystemOperations : Allowing user-supplied system call operations

// * * * * * * * * * * * * * * * * * * * * * * * * * * * * * * * * * * * * * //
Create time

Create mesh for time = 0

Selecting solver shockThermo
Selecting thermodynamics package 
{
    type            fluidMulticomponentThermo;
    mixture         reactingMixture;
    transport       sutherland;
    thermo          janaf;
    energy          sensibleEnthalpy;
    equationOfState perfectGas;
    specie          specie;
}



--> FOAM FATAL IO ERROR: 
"ill defined primitiveEntry starting at keyword 'type(' on line 17 and ending at line 64"

file: /home/student/.OpenFOAM/13/codeTemplates/dynamicCode/psiThermo at line 64.

    From function void Foam::primitiveEntry::readEntry(const Foam::dictionary&, Foam::Istream&)
    in file db/dictionary/primitiveEntry/primitiveEntryIO.C at line 95.

FOAM exiting

