/*---------------------------------------------------------------------------*\
  =========                 |
  \\      /  F ield         | OpenFOAM: The Open Source CFD Toolbox
   \\    /   O peration     | Website:  https://openfoam.org
    \\  /    A nd           | Version:  13
     \\/     M anipulation  |
\*---------------------------------------------------------------------------*/
Build  : 13-5599db86c70d
Exec   : foamRun
Date   : Dec 16 2025
Time   : 18:52:12
Host   : "b3ef838fb406"
PID    : 13576
I/O    : uncollated
Case   : /home/student/OpenFOAM/student-13/run/aeroHPC/OpenFOAM/tutorials/shockThermo/shockTube
nProcs : 1
sigFpe : Enabling floating point exception trapping (FOAM_SIGFPE).
fileModificationChecking : Monitoring run-time modified files using timeStampMaster (fileModificationSkew 10)
allowSystemOperations : Allowing user-supplied system call operations

// * * * * * * * * * * * * * * * * * * * * * * * * * * * * * * * * * * * * * //
Create time

Create mesh for time = 0

Selecting solver shockThermo
Selecting thermodynamics package 
{
    type            highEnthalpyThermo;
    mixture         coefficientWilkeMulticomponentMixture;
    transport       sutherland;
    thermo          janaf;
    energy          sensibleInternalEnergy;
    equationOfState perfectGas;
    specie          specie;
}

--> FOAM Warning : 
    From function const Foam::HashTable<Foam::List<int>, Foam::word>& Foam::polyBoundaryMesh::groupPatchIndices() const
    in file meshes/polyMesh/polyBoundaryMesh/polyBoundaryMesh.C at line 506
    Removing patchGroup 'empty' which clashes with patch 1 of the same name.
highEnthalpyMulticomponentThermo::composite - constructor
Selecting turbulence model type laminar
    Selecting laminar stress model Stokes
Selecting thermophysical transport type laminar
Selecting default laminar thermophysical transport model unityLewisFourier
Courant Number mean: 0.0888093 max: 0.0937532
Initializing Mutation++ mechanism: air_5
Combustion model not active: combustionProperties not found
Selecting combustion model none
Selecting thermophysical transport type laminar
Selecting default laminar thermophysical transport model unityLewisFourier
Creating fvConstraints from "system/fvConstraints"

Selecting finite volume constraint type limitTemperature
    Name: limitTemperature(min=299,max=3500)

PIMPLE: No convergence criteria found


PIMPLE: No corrector convergence criteria found
        Calculations will do 2 corrections


PIMPLE: Operating solver in transient mode with 2 outer correctors



Starting time loop

Courant Number mean: 0.0888093 max: 0.0937532
Time = 5e-06s

PIMPLE: Iteration 1
diagonal:  Solving for rho, Initial residual = 0, Final residual = 0, No Iterations 0
smoothSolver:  Solving for Ux, Initial residual = 1, Final residual = 2.43055e-12, No Iterations 2
DILUPBiCG:  Solving for O2, Initial residual = 0.000498557, Final residual = 1.40702e-19, No Iterations 1
DILUPBiCG:  Solving for NO, Initial residual = 0, Final residual = 0, No Iterations 0
DILUPBiCG:  Solving for N, Initial residual = 0, Final residual = 0, No Iterations 0
DILUPBiCG:  Solving for O, Initial residual = 0, Final residual = 0, No Iterations 0
smoothSolver:  Solving for e, Initial residual = 0.000169358, Final residual = 2.30936e-15, No Iterations 2
implement your two-temperature model here
PIMPLE: Iteration 2
diagonal:  Solving for rho, Initial residual = 0, Final residual = 0, No Iterations 0
smoothSolver:  Solving for Ux, Initial residual = 0.0554589, Final residual = 4.24476e-13, No Iterations 2
DILUPBiCG:  Solving for O2, Initial residual = 6.01434e-05, Final residual = 2.25364e-20, No Iterations 1
DILUPBiCG:  Solving for NO, Initial residual = 0, Final residual = 0, No Iterations 0
DILUPBiCG:  Solving for N, Initial residual = 0, Final residual = 0, No Iterations 0
DILUPBiCG:  Solving for O, Initial residual = 0, Final residual = 0, No Iterations 0
smoothSolver:  Solving for e, Initial residual = 0.0434829, Final residual = 6.04151e-12, No Iterations 2
implement your two-temperature model here
ExecutionTime = 0.069254 s  ClockTime = 1 s

Courant Number mean: 0.0903738 max: 0.123631
Time = 1e-05s

PIMPLE: Iteration 1
diagonal:  Solving for rho, Initial residual = 0, Final residual = 0, No Iterations 0
smoothSolver:  Solving for Ux, Initial residual = 0.119063, Final residual = 4.21431e-13, No Iterations 2
DILUPBiCG:  Solving for O2, Initial residual = 0.00022663, Final residual = 2.34303e-20, No Iterations 1
DILUPBiCG:  Solving for NO, Initial residual = 0, Final residual = 0, No Iterations 0
DILUPBiCG:  Solving for N, Initial residual = 0, Final residual = 0, No Iterations 0
DILUPBiCG:  Solving for O, Initial residual = 0, Final residual = 0, No Iterations 0
smoothSolver:  Solving for e, Initial residual = 0.000157393, Final residual = 3.40722e-15, No Iterations 2
implement your two-temperature model here
PIMPLE: Iteration 2
diagonal:  Solving for rho, Initial residual = 0, Final residual = 0, No Iterations 0
smoothSolver:  Solving for Ux, Initial residual = 0.0246375, Final residual = 1.8756e-13, No Iterations 2
DILUPBiCG:  Solving for O2, Initial residual = 8.5727e-05, Final residual = 5.56626e-20, No Iterations 1
DILUPBiCG:  Solving for NO, Initial residual = 0, Final residual = 0, No Iterations 0
DILUPBiCG:  Solving for N, Initial residual = 0, Final residual = 0, No Iterations 0
DILUPBiCG:  Solving for O, Initial residual = 0, Final residual = 0, No Iterations 0
smoothSolver:  Solving for e, Initial residual = 0.000104975, Final residual = 4.29582e-15, No Iterations 2
implement your two-temperature model here
ExecutionTime = 0.071685 s  ClockTime = 1 s

Courant Number mean: 0.0904168 max: 0.139276
Time = 1.5e-05s

PIMPLE: Iteration 1
diagonal:  Solving for rho, Initial residual = 0, Final residual = 0, No Iterations 0
smoothSolver:  Solving for Ux, Initial residual = 0.0672272, Final residual = 2.80613e-13, No Iterations 2
DILUPBiCG:  Solving for O2, Initial residual = 4.94571e-05, Final residual = 3.1125e-21, No Iterations 1
DILUPBiCG:  Solving for NO, Initial residual = 0, Final residual = 0, No Iterations 0
DILUPBiCG:  Solving for N, Initial residual = 0, Final residual = 0, No Iterations 0
DILUPBiCG:  Solving for O, Initial residual = 0, Final residual = 0, No Iterations 0
smoothSolver:  Solving for e, Initial residual = 0.000214432, Final residual = 4.80625e-15, No Iterations 2
implement your two-temperature model here
PIMPLE: Iteration 2
diagonal:  Solving for rho, Initial residual = 0, Final residual = 0, No Iterations 0
smoothSolver:  Solving for Ux, Initial residual = 0.0140278, Final residual = 9.41285e-14, No Iterations 2
DILUPBiCG:  Solving for O2, Initial residual = 3.79183e-05, Final residual = 2.48239e-21, No Iterations 1
DILUPBiCG:  Solving for NO, Initial residual = 0, Final residual = 0, No Iterations 0
DILUPBiCG:  Solving for N, Initial residual = 0, Final residual = 0, No Iterations 0
DILUPBiCG:  Solving for O, Initial residual = 0, Final residual = 0, No Iterations 0
smoothSolver:  Solving for e, Initial residual = 7.97447e-05, Final residual = 2.956e-15, No Iterations 2
implement your two-temperature model here
ExecutionTime = 0.073865 s  ClockTime = 1 s

Courant Number mean: 0.0904443 max: 0.144378
Time = 2e-05s

PIMPLE: Iteration 1
diagonal:  Solving for rho, Initial residual = 0, Final residual = 0, No Iterations 0
smoothSolver:  Solving for Ux, Initial residual = 0.0482236, Final residual = 2.16716e-13, No Iterations 2
DILUPBiCG:  Solving for O2, Initial residual = 3.6271e-05, Final residual = 4.32156e-21, No Iterations 1
DILUPBiCG:  Solving for NO, Initial residual = 0, Final residual = 0, No Iterations 0
DILUPBiCG:  Solving for N, Initial residual = 0, Final residual = 0, No Iterations 0
DILUPBiCG:  Solving for O, Initial residual = 0, Final residual = 0, No Iterations 0
smoothSolver:  Solving for e, Initial residual = 0.000272509, Final residual = 5.54337e-15, No Iterations 2
implement your two-temperature model here
PIMPLE: Iteration 2
diagonal:  Solving for rho, Initial residual = 0, Final residual = 0, No Iterations 0
smoothSolver:  Solving for Ux, Initial residual = 0.00924533, Final residual = 5.86595e-14, No Iterations 2
DILUPBiCG:  Solving for O2, Initial residual = 8.6603e-05, Final residual = 5.56424e-20, No Iterations 1
DILUPBiCG:  Solving for NO, Initial residual = 0, Final residual = 0, No Iterations 0
DILUPBiCG:  Solving for N, Initial residual = 0, Final residual = 0, No Iterations 0
DILUPBiCG:  Solving for O, Initial residual = 0, Final residual = 0, No Iterations 0
smoothSolver:  Solving for e, Initial residual = 6.10855e-05, Final residual = 2.27959e-15, No Iterations 2
implement your two-temperature model here
ExecutionTime = 0.076171 s  ClockTime = 1 s

Courant Number mean: 0.0904707 max: 0.148401
Time = 2.5e-05s

PIMPLE: Iteration 1
diagonal:  Solving for rho, Initial residual = 0, Final residual = 0, No Iterations 0
smoothSolver:  Solving for Ux, Initial residual = 0.0381391, Final residual = 1.83578e-13, No Iterations 2
DILUPBiCG:  Solving for O2, Initial residual = 6.59853e-05, Final residual = 1.53844e-20, No Iterations 1
DILUPBiCG:  Solving for NO, Initial residual = 0, Final residual = 0, No Iterations 0
DILUPBiCG:  Solving for N, Initial residual = 0, Final residual = 0, No Iterations 0
DILUPBiCG:  Solving for O, Initial residual = 0, Final residual = 0, No Iterations 0
smoothSolver:  Solving for e, Initial residual = 0.000309255, Final residual = 6.07639e-15, No Iterations 2
implement your two-temperature model here
PIMPLE: Iteration 2
diagonal:  Solving for rho, Initial residual = 0, Final residual = 0, No Iterations 0
smoothSolver:  Solving for Ux, Initial residual = 0.00657376, Final residual = 4.37501e-14, No Iterations 2
DILUPBiCG:  Solving for O2, Initial residual = 5.53096e-05, Final residual = 4.1257e-21, No Iterations 1
DILUPBiCG:  Solving for NO, Initial residual = 0, Final residual = 0, No Iterations 0
DILUPBiCG:  Solving for N, Initial residual = 0, Final residual = 0, No Iterations 0
DILUPBiCG:  Solving for O, Initial residual = 0, Final residual = 0, No Iterations 0
smoothSolver:  Solving for e, Initial residual = 5.67319e-05, Final residual = 2.28284e-15, No Iterations 2
implement your two-temperature model here
ExecutionTime = 0.078429 s  ClockTime = 1 s

Courant Number mean: 0.0905006 max: 0.156689
Time = 3e-05s

PIMPLE: Iteration 1
diagonal:  Solving for rho, Initial residual = 0, Final residual = 0, No Iterations 0
smoothSolver:  Solving for Ux, Initial residual = 0.031699, Final residual = 1.62354e-13, No Iterations 2
DILUPBiCG:  Solving for O2, Initial residual = 7.50782e-05, Final residual = 5.40471e-21, No Iterations 1
DILUPBiCG:  Solving for NO, Initial residual = 0, Final residual = 0, No Iterations 0
DILUPBiCG:  Solving for N, Initial residual = 0, Final residual = 0, No Iterations 0
DILUPBiCG:  Solving for O, Initial residual = 0, Final residual = 0, No Iterations 0
smoothSolver:  Solving for e, Initial residual = 0.000337344, Final residual = 6.69227e-15, No Iterations 2
implement your two-temperature model here
PIMPLE: Iteration 2
diagonal:  Solving for rho, Initial residual = 0, Final residual = 0, No Iterations 0
smoothSolver:  Solving for Ux, Initial residual = 0.00493351, Final residual = 3.55271e-14, No Iterations 2
DILUPBiCG:  Solving for O2, Initial residual = 7.18329e-05, Final residual = 2.80677e-20, No Iterations 1
DILUPBiCG:  Solving for NO, Initial residual = 0, Final residual = 0, No Iterations 0
DILUPBiCG:  Solving for N, Initial residual = 0, Final residual = 0, No Iterations 0
DILUPBiCG:  Solving for O, Initial residual = 0, Final residual = 0, No Iterations 0
smoothSolver:  Solving for e, Initial residual = 0.000105744, Final residual = 3.33669e-15, No Iterations 2
implement your two-temperature model here
ExecutionTime = 0.080729 s  ClockTime = 1 s

Courant Number mean: 0.0905298 max: 0.162927
Time = 3.5e-05s

PIMPLE: Iteration 1
diagonal:  Solving for rho, Initial residual = 0, Final residual = 0, No Iterations 0
smoothSolver:  Solving for Ux, Initial residual = 0.0270736, Final residual = 1.45832e-13, No Iterations 2
DILUPBiCG:  Solving for O2, Initial residual = 7.5923e-05, Final residual = 2.20382e-21, No Iterations 1
DILUPBiCG:  Solving for NO, Initial residual = 0, Final residual = 0, No Iterations 0
DILUPBiCG:  Solving for N, Initial residual = 0, Final residual = 0, No Iterations 0
DILUPBiCG:  Solving for O, Initial residual = 0, Final residual = 0, No Iterations 0
smoothSolver:  Solving for e, Initial residual = 0.000397747, Final residual = 8.32976e-15, No Iterations 2
implement your two-temperature model here
PIMPLE: Iteration 2
diagonal:  Solving for rho, Initial residual = 0, Final residual = 0, No Iterations 0
smoothSolver:  Solving for Ux, Initial residual = 0.00388408, Final residual = 3.06811e-14, No Iterations 2
DILUPBiCG:  Solving for O2, Initial residual = 7.18139e-05, Final residual = 1.41238e-20, No Iterations 1
DILUPBiCG:  Solving for NO, Initial residual = 0, Final residual = 0, No Iterations 0
DILUPBiCG:  Solving for N, Initial residual = 0, Final residual = 0, No Iterations 0
DILUPBiCG:  Solving for O, Initial residual = 0, Final residual = 0, No Iterations 0
smoothSolver:  Solving for e, Initial residual = 0.000124295, Final residual = 3.56491e-15, No Iterations 2
implement your two-temperature model here
ExecutionTime = 0.083042 s  ClockTime = 1 s

Courant Number mean: 0.0905565 max: 0.166584
Time = 4e-05s

PIMPLE: Iteration 1
diagonal:  Solving for rho, Initial residual = 0, Final residual = 0, No Iterations 0
smoothSolver:  Solving for Ux, Initial residual = 0.0235449, Final residual = 1.31838e-13, No Iterations 2
DILUPBiCG:  Solving for O2, Initial residual = 0.000118786, Final residual = 1.13948e-20, No Iterations 1
DILUPBiCG:  Solving for NO, Initial residual = 0, Final residual = 0, No Iterations 0
DILUPBiCG:  Solving for N, Initial residual = 0, Final residual = 0, No Iterations 0
DILUPBiCG:  Solving for O, Initial residual = 0, Final residual = 0, No Iterations 0
smoothSolver:  Solving for e, Initial residual = 0.000452513, Final residual = 9.54187e-15, No Iterations 2
implement your two-temperature model here
PIMPLE: Iteration 2
diagonal:  Solving for rho, Initial residual = 0, Final residual = 0, No Iterations 0
smoothSolver:  Solving for Ux, Initial residual = 0.00321984, Final residual = 2.78646e-14, No Iterations 2
DILUPBiCG:  Solving for O2, Initial residual = 0.000113078, Final residual = 3.68737e-20, No Iterations 1
DILUPBiCG:  Solving for NO, Initial residual = 0, Final residual = 0, No Iterations 0
DILUPBiCG:  Solving for N, Initial residual = 0, Final residual = 0, No Iterations 0
DILUPBiCG:  Solving for O, Initial residual = 0, Final residual = 0, No Iterations 0
smoothSolver:  Solving for e, Initial residual = 0.000130608, Final residual = 3.58498e-15, No Iterations 2
implement your two-temperature model here
ExecutionTime = 0.085245 s  ClockTime = 1 s

Courant Number mean: 0.0905812 max: 0.167296
Time = 4.5e-05s

PIMPLE: Iteration 1
diagonal:  Solving for rho, Initial residual = 0, Final residual = 0, No Iterations 0
smoothSolver:  Solving for Ux, Initial residual = 0.0208024, Final residual = 1.21406e-13, No Iterations 2
DILUPBiCG:  Solving for O2, Initial residual = 0.000117989, Final residual = 1.20128e-20, No Iterations 1
DILUPBiCG:  Solving for NO, Initial residual = 0, Final residual = 0, No Iterations 0
DILUPBiCG:  Solving for N, Initial residual = 0, Final residual = 0, No Iterations 0
DILUPBiCG:  Solving for O, Initial residual = 0, Final residual = 0, No Iterations 0
smoothSolver:  Solving for e, Initial residual = 0.000488651, Final residual = 1.02592e-14, No Iterations 2
implement your two-temperature model here
PIMPLE: Iteration 2
diagonal:  Solving for rho, Initial residual = 0, Final residual = 0, No Iterations 0
smoothSolver:  Solving for Ux, Initial residual = 0.00275718, Final residual = 2.51051e-14, No Iterations 2
DILUPBiCG:  Solving for O2, Initial residual = 0.000105652, Final residual = 1.38142e-19, No Iterations 1
DILUPBiCG:  Solving for NO, Initial residual = 0, Final residual = 0, No Iterations 0
DILUPBiCG:  Solving for N, Initial residual = 0, Final residual = 0, No Iterations 0
DILUPBiCG:  Solving for O, Initial residual = 0, Final residual = 0, No Iterations 0
smoothSolver:  Solving for e, Initial residual = 0.000136392, Final residual = 3.84131e-15, No Iterations 2
implement your two-temperature model here
ExecutionTime = 0.087479 s  ClockTime = 1 s

Courant Number mean: 0.0906075 max: 0.167388
Time = 5e-05s

PIMPLE: Iteration 1
diagonal:  Solving for rho, Initial residual = 0, Final residual = 0, No Iterations 0
smoothSolver:  Solving for Ux, Initial residual = 0.018624, Final residual = 1.13149e-13, No Iterations 2
DILUPBiCG:  Solving for O2, Initial residual = 0.000134486, Final residual = 3.47313e-20, No Iterations 1
DILUPBiCG:  Solving for NO, Initial residual = 0, Final residual = 0, No Iterations 0
DILUPBiCG:  Solving for N, Initial residual = 0, Final residual = 0, No Iterations 0
DILUPBiCG:  Solving for O, Initial residual = 0, Final residual = 0, No Iterations 0
smoothSolver:  Solving for e, Initial residual = 0.00050374, Final residual = 1.05692e-14, No Iterations 2
implement your two-temperature model here
PIMPLE: Iteration 2
diagonal:  Solving for rho, Initial residual = 0, Final residual = 0, No Iterations 0
smoothSolver:  Solving for Ux, Initial residual = 0.00267048, Final residual = 2.50836e-14, No Iterations 2
DILUPBiCG:  Solving for O2, Initial residual = 0.000142803, Final residual = 3.31768e-20, No Iterations 1
DILUPBiCG:  Solving for NO, Initial residual = 0, Final residual = 0, No Iterations 0
DILUPBiCG:  Solving for N, Initial residual = 0, Final residual = 0, No Iterations 0
DILUPBiCG:  Solving for O, Initial residual = 0, Final residual = 0, No Iterations 0
smoothSolver:  Solving for e, Initial residual = 0.000153887, Final residual = 4.50922e-15, No Iterations 2
implement your two-temperature model here
ExecutionTime = 0.089718 s  ClockTime = 1 s

Courant Number mean: 0.0906342 max: 0.167628
Time = 5.5e-05s

PIMPLE: Iteration 1
diagonal:  Solving for rho, Initial residual = 0, Final residual = 0, No Iterations 0
smoothSolver:  Solving for Ux, Initial residual = 0.0168391, Final residual = 1.06073e-13, No Iterations 2
DILUPBiCG:  Solving for O2, Initial residual = 0.000124614, Final residual = 1.77764e-20, No Iterations 1
DILUPBiCG:  Solving for NO, Initial residual = 0, Final residual = 0, No Iterations 0
DILUPBiCG:  Solving for N, Initial residual = 0, Final residual = 0, No Iterations 0
DILUPBiCG:  Solving for O, Initial residual = 0, Final residual = 0, No Iterations 0
smoothSolver:  Solving for e, Initial residual = 0.000507979, Final residual = 1.08452e-14, No Iterations 2
implement your two-temperature model here
PIMPLE: Iteration 2
diagonal:  Solving for rho, Initial residual = 0, Final residual = 0, No Iterations 0
smoothSolver:  Solving for Ux, Initial residual = 0.00251762, Final residual = 2.38661e-14, No Iterations 2
DILUPBiCG:  Solving for O2, Initial residual = 0.000121362, Final residual = 4.478e-19, No Iterations 1
DILUPBiCG:  Solving for NO, Initial residual = 0, Final residual = 0, No Iterations 0
DILUPBiCG:  Solving for N, Initial residual = 0, Final residual = 0, No Iterations 0
DILUPBiCG:  Solving for O, Initial residual = 0, Final residual = 0, No Iterations 0
smoothSolver:  Solving for e, Initial residual = 0.000159393, Final residual = 4.57183e-15, No Iterations 2
implement your two-temperature model here
ExecutionTime = 0.092132 s  ClockTime = 1 s

Courant Number mean: 0.0906607 max: 0.167847
Time = 6e-05s

PIMPLE: Iteration 1
diagonal:  Solving for rho, Initial residual = 0, Final residual = 0, No Iterations 0
smoothSolver:  Solving for Ux, Initial residual = 0.0153602, Final residual = 1.00295e-13, No Iterations 2
DILUPBiCG:  Solving for O2, Initial residual = 9.73795e-05, Final residual = 9.01563e-21, No Iterations 1
DILUPBiCG:  Solving for NO, Initial residual = 0, Final residual = 0, No Iterations 0
DILUPBiCG:  Solving for N, Initial residual = 0, Final residual = 0, No Iterations 0
DILUPBiCG:  Solving for O, Initial residual = 0, Final residual = 0, No Iterations 0
smoothSolver:  Solving for e, Initial residual = 0.000528475, Final residual = 1.16886e-14, No Iterations 2
implement your two-temperature model here
PIMPLE: Iteration 2
diagonal:  Solving for rho, Initial residual = 0, Final residual = 0, No Iterations 0
smoothSolver:  Solving for Ux, Initial residual = 0.00235458, Final residual = 2.25936e-14, No Iterations 2
DILUPBiCG:  Solving for O2, Initial residual = 0.000129615, Final residual = 8.93831e-20, No Iterations 1
DILUPBiCG:  Solving for NO, Initial residual = 0, Final residual = 0, No Iterations 0
DILUPBiCG:  Solving for N, Initial residual = 0, Final residual = 0, No Iterations 0
DILUPBiCG:  Solving for O, Initial residual = 0, Final residual = 0, No Iterations 0
smoothSolver:  Solving for e, Initial residual = 0.000158839, Final residual = 4.45013e-15, No Iterations 2
implement your two-temperature model here
ExecutionTime = 0.09432 s  ClockTime = 1 s

Courant Number mean: 0.0906875 max: 0.167653
Time = 6.5e-05s

PIMPLE: Iteration 1
diagonal:  Solving for rho, Initial residual = 0, Final residual = 0, No Iterations 0
smoothSolver:  Solving for Ux, Initial residual = 0.0141242, Final residual = 9.55526e-14, No Iterations 2
DILUPBiCG:  Solving for O2, Initial residual = 0.000120475, Final residual = 1.98306e-20, No Iterations 1
DILUPBiCG:  Solving for NO, Initial residual = 0, Final residual = 0, No Iterations 0
DILUPBiCG:  Solving for N, Initial residual = 0, Final residual = 0, No Iterations 0
DILUPBiCG:  Solving for O, Initial residual = 0, Final residual = 0, No Iterations 0
smoothSolver:  Solving for e, Initial residual = 0.000561348, Final residual = 1.27142e-14, No Iterations 2
implement your two-temperature model here
PIMPLE: Iteration 2
diagonal:  Solving for rho, Initial residual = 0, Final residual = 0, No Iterations 0
smoothSolver:  Solving for Ux, Initial residual = 0.00204996, Final residual = 2.04405e-14, No Iterations 2
DILUPBiCG:  Solving for O2, Initial residual = 0.000150247, Final residual = 3.12333e-20, No Iterations 1
DILUPBiCG:  Solving for NO, Initial residual = 0, Final residual = 0, No Iterations 0
DILUPBiCG:  Solving for N, Initial residual = 0, Final residual = 0, No Iterations 0
DILUPBiCG:  Solving for O, Initial residual = 0, Final residual = 0, No Iterations 0
smoothSolver:  Solving for e, Initial residual = 0.000154394, Final residual = 4.47951e-15, No Iterations 2
implement your two-temperature model here
ExecutionTime = 0.096712 s  ClockTime = 1 s

Courant Number mean: 0.0907144 max: 0.167224
Time = 7e-05s

PIMPLE: Iteration 1
diagonal:  Solving for rho, Initial residual = 0, Final residual = 0, No Iterations 0
smoothSolver:  Solving for Ux, Initial residual = 0.0130693, Final residual = 9.1291e-14, No Iterations 2
DILUPBiCG:  Solving for O2, Initial residual = 9.90228e-05, Final residual = 1.77368e-19, No Iterations 1
DILUPBiCG:  Solving for NO, Initial residual = 0, Final residual = 0, No Iterations 0
DILUPBiCG:  Solving for N, Initial residual = 0, Final residual = 0, No Iterations 0
DILUPBiCG:  Solving for O, Initial residual = 0, Final residual = 0, No Iterations 0
smoothSolver:  Solving for e, Initial residual = 0.000585714, Final residual = 1.34866e-14, No Iterations 2
implement your two-temperature model here
PIMPLE: Iteration 2
diagonal:  Solving for rho, Initial residual = 0, Final residual = 0, No Iterations 0
smoothSolver:  Solving for Ux, Initial residual = 0.00170356, Final residual = 1.80388e-14, No Iterations 2
DILUPBiCG:  Solving for O2, Initial residual = 0.000161807, Final residual = 7.07736e-20, No Iterations 1
DILUPBiCG:  Solving for NO, Initial residual = 0, Final residual = 0, No Iterations 0
DILUPBiCG:  Solving for N, Initial residual = 0, Final residual = 0, No Iterations 0
DILUPBiCG:  Solving for O, Initial residual = 0, Final residual = 0, No Iterations 0
smoothSolver:  Solving for e, Initial residual = 0.000156018, Final residual = 4.7526e-15, No Iterations 2
implement your two-temperature model here
ExecutionTime = 0.099031 s  ClockTime = 1 s

Courant Number mean: 0.0907418 max: 0.167597
Time = 7.5e-05s

PIMPLE: Iteration 1
diagonal:  Solving for rho, Initial residual = 0, Final residual = 0, No Iterations 0
smoothSolver:  Solving for Ux, Initial residual = 0.0121554, Final residual = 8.73356e-14, No Iterations 2
DILUPBiCG:  Solving for O2, Initial residual = 0.00013119, Final residual = 1.19499e-19, No Iterations 1
DILUPBiCG:  Solving for NO, Initial residual = 0, Final residual = 0, No Iterations 0
DILUPBiCG:  Solving for N, Initial residual = 0, Final residual = 0, No Iterations 0
DILUPBiCG:  Solving for O, Initial residual = 0, Final residual = 0, No Iterations 0
smoothSolver:  Solving for e, Initial residual = 0.000596679, Final residual = 1.39481e-14, No Iterations 2
implement your two-temperature model here
PIMPLE: Iteration 2
diagonal:  Solving for rho, Initial residual = 0, Final residual = 0, No Iterations 0
smoothSolver:  Solving for Ux, Initial residual = 0.00160932, Final residual = 1.7831e-14, No Iterations 2
DILUPBiCG:  Solving for O2, Initial residual = 0.000143639, Final residual = 3.22784e-19, No Iterations 1
DILUPBiCG:  Solving for NO, Initial residual = 0, Final residual = 0, No Iterations 0
DILUPBiCG:  Solving for N, Initial residual = 0, Final residual = 0, No Iterations 0
DILUPBiCG:  Solving for O, Initial residual = 0, Final residual = 0, No Iterations 0
smoothSolver:  Solving for e, Initial residual = 0.000161137, Final residual = 5.01054e-15, No Iterations 2
implement your two-temperature model here
ExecutionTime = 0.101419 s  ClockTime = 1 s

Courant Number mean: 0.0907698 max: 0.168182
Time = 8e-05s

PIMPLE: Iteration 1
diagonal:  Solving for rho, Initial residual = 0, Final residual = 0, No Iterations 0
smoothSolver:  Solving for Ux, Initial residual = 0.0113631, Final residual = 8.3974e-14, No Iterations 2
DILUPBiCG:  Solving for O2, Initial residual = 0.000132853, Final residual = 1.66546e-20, No Iterations 1
DILUPBiCG:  Solving for NO, Initial residual = 0, Final residual = 0, No Iterations 0
DILUPBiCG:  Solving for N, Initial residual = 0, Final residual = 0, No Iterations 0
DILUPBiCG:  Solving for O, Initial residual = 0, Final residual = 0, No Iterations 0
smoothSolver:  Solving for e, Initial residual = 0.00059717, Final residual = 1.4173e-14, No Iterations 2
implement your two-temperature model here
PIMPLE: Iteration 2
diagonal:  Solving for rho, Initial residual = 0, Final residual = 0, No Iterations 0
smoothSolver:  Solving for Ux, Initial residual = 0.00149359, Final residual = 1.68391e-14, No Iterations 2
DILUPBiCG:  Solving for O2, Initial residual = 0.000132937, Final residual = 1.47953e-20, No Iterations 1
DILUPBiCG:  Solving for NO, Initial residual = 0, Final residual = 0, No Iterations 0
DILUPBiCG:  Solving for N, Initial residual = 0, Final residual = 0, No Iterations 0
DILUPBiCG:  Solving for O, Initial residual = 0, Final residual = 0, No Iterations 0
smoothSolver:  Solving for e, Initial residual = 0.000217505, Final residual = 5.20701e-15, No Iterations 2
implement your two-temperature model here
ExecutionTime = 0.1037 s  ClockTime = 1 s

Courant Number mean: 0.0907983 max: 0.168479
Time = 8.5e-05s

PIMPLE: Iteration 1
diagonal:  Solving for rho, Initial residual = 0, Final residual = 0, No Iterations 0
smoothSolver:  Solving for Ux, Initial residual = 0.0106667, Final residual = 8.07847e-14, No Iterations 2
DILUPBiCG:  Solving for O2, Initial residual = 0.000163427, Final residual = 1.73318e-20, No Iterations 1
DILUPBiCG:  Solving for NO, Initial residual = 0, Final residual = 0, No Iterations 0
DILUPBiCG:  Solving for N, Initial residual = 0, Final residual = 0, No Iterations 0
DILUPBiCG:  Solving for O, Initial residual = 0, Final residual = 0, No Iterations 0
smoothSolver:  Solving for e, Initial residual = 0.000620121, Final residual = 1.50982e-14, No Iterations 2
implement your two-temperature model here
PIMPLE: Iteration 2
diagonal:  Solving for rho, Initial residual = 0, Final residual = 0, No Iterations 0
smoothSolver:  Solving for Ux, Initial residual = 0.00141938, Final residual = 1.59686e-14, No Iterations 2
DILUPBiCG:  Solving for O2, Initial residual = 0.000236135, Final residual = 5.98697e-20, No Iterations 1
DILUPBiCG:  Solving for NO, Initial residual = 0, Final residual = 0, No Iterations 0
DILUPBiCG:  Solving for N, Initial residual = 0, Final residual = 0, No Iterations 0
DILUPBiCG:  Solving for O, Initial residual = 0, Final residual = 0, No Iterations 0
smoothSolver:  Solving for e, Initial residual = 0.000218291, Final residual = 5.24394e-15, No Iterations 2
implement your two-temperature model here
ExecutionTime = 0.106083 s  ClockTime = 1 s

Courant Number mean: 0.0908257 max: 0.16817
Time = 9e-05s

PIMPLE: Iteration 1
diagonal:  Solving for rho, Initial residual = 0, Final residual = 0, No Iterations 0
smoothSolver:  Solving for Ux, Initial residual = 0.0100475, Final residual = 7.77544e-14, No Iterations 2
DILUPBiCG:  Solving for O2, Initial residual = 0.000130416, Final residual = 4.22735e-20, No Iterations 1
DILUPBiCG:  Solving for NO, Initial residual = 0, Final residual = 0, No Iterations 0
DILUPBiCG:  Solving for N, Initial residual = 0, Final residual = 0, No Iterations 0
DILUPBiCG:  Solving for O, Initial residual = 0, Final residual = 0, No Iterations 0
smoothSolver:  Solving for e, Initial residual = 0.000642261, Final residual = 1.59362e-14, No Iterations 2
implement your two-temperature model here
PIMPLE: Iteration 2
diagonal:  Solving for rho, Initial residual = 0, Final residual = 0, No Iterations 0
smoothSolver:  Solving for Ux, Initial residual = 0.00130942, Final residual = 1.53141e-14, No Iterations 2
DILUPBiCG:  Solving for O2, Initial residual = 0.000163487, Final residual = 4.54947e-20, No Iterations 1
DILUPBiCG:  Solving for NO, Initial residual = 0, Final residual = 0, No Iterations 0
DILUPBiCG:  Solving for N, Initial residual = 0, Final residual = 0, No Iterations 0
DILUPBiCG:  Solving for O, Initial residual = 0, Final residual = 0, No Iterations 0
smoothSolver:  Solving for e, Initial residual = 0.000217736, Final residual = 5.5042e-15, No Iterations 2
implement your two-temperature model here
ExecutionTime = 0.108261 s  ClockTime = 1 s

Courant Number mean: 0.0908533 max: 0.16761
Time = 9.5e-05s

PIMPLE: Iteration 1
diagonal:  Solving for rho, Initial residual = 0, Final residual = 0, No Iterations 0
smoothSolver:  Solving for Ux, Initial residual = 0.00949875, Final residual = 7.52017e-14, No Iterations 2
DILUPBiCG:  Solving for O2, Initial residual = 0.000181568, Final residual = 8.02949e-20, No Iterations 1
DILUPBiCG:  Solving for NO, Initial residual = 0, Final residual = 0, No Iterations 0
DILUPBiCG:  Solving for N, Initial residual = 0, Final residual = 0, No Iterations 0
DILUPBiCG:  Solving for O, Initial residual = 0, Final residual = 0, No Iterations 0
smoothSolver:  Solving for e, Initial residual = 0.000656433, Final residual = 1.65761e-14, No Iterations 2
implement your two-temperature model here
PIMPLE: Iteration 2
diagonal:  Solving for rho, Initial residual = 0, Final residual = 0, No Iterations 0
smoothSolver:  Solving for Ux, Initial residual = 0.00123577, Final residual = 1.5067e-14, No Iterations 2
DILUPBiCG:  Solving for O2, Initial residual = 0.000199803, Final residual = 3.75224e-20, No Iterations 1
DILUPBiCG:  Solving for NO, Initial residual = 0, Final residual = 0, No Iterations 0
DILUPBiCG:  Solving for N, Initial residual = 0, Final residual = 0, No Iterations 0
DILUPBiCG:  Solving for O, Initial residual = 0, Final residual = 0, No Iterations 0
smoothSolver:  Solving for e, Initial residual = 0.000216715, Final residual = 5.70817e-15, No Iterations 2
implement your two-temperature model here
ExecutionTime = 0.110523 s  ClockTime = 1 s

Courant Number mean: 0.0908822 max: 0.167037
Time = 0.0001s

PIMPLE: Iteration 1
diagonal:  Solving for rho, Initial residual = 0, Final residual = 0, No Iterations 0
smoothSolver:  Solving for Ux, Initial residual = 0.00901231, Final residual = 7.29462e-14, No Iterations 2
DILUPBiCG:  Solving for O2, Initial residual = 0.000160117, Final residual = 5.58437e-20, No Iterations 1
DILUPBiCG:  Solving for NO, Initial residual = 0, Final residual = 0, No Iterations 0
DILUPBiCG:  Solving for N, Initial residual = 0, Final residual = 0, No Iterations 0
DILUPBiCG:  Solving for O, Initial residual = 0, Final residual = 0, No Iterations 0
smoothSolver:  Solving for e, Initial residual = 0.000661468, Final residual = 1.68946e-14, No Iterations 2
implement your two-temperature model here
PIMPLE: Iteration 2
diagonal:  Solving for rho, Initial residual = 0, Final residual = 0, No Iterations 0
smoothSolver:  Solving for Ux, Initial residual = 0.00112281, Final residual = 1.3993e-14, No Iterations 2
DILUPBiCG:  Solving for O2, Initial residual = 0.000204744, Final residual = 6.27578e-19, No Iterations 1
DILUPBiCG:  Solving for NO, Initial residual = 0, Final residual = 0, No Iterations 0
DILUPBiCG:  Solving for N, Initial residual = 0, Final residual = 0, No Iterations 0
DILUPBiCG:  Solving for O, Initial residual = 0, Final residual = 0, No Iterations 0
smoothSolver:  Solving for e, Initial residual = 0.000268373, Final residual = 5.85944e-15, No Iterations 2
implement your two-temperature model here
ExecutionTime = 0.112894 s  ClockTime = 1 s

Courant Number mean: 0.0909109 max: 0.167031
Time = 0.000105s

PIMPLE: Iteration 1
diagonal:  Solving for rho, Initial residual = 0, Final residual = 0, No Iterations 0
smoothSolver:  Solving for Ux, Initial residual = 0.00856959, Final residual = 7.05479e-14, No Iterations 2
DILUPBiCG:  Solving for O2, Initial residual = 0.000155145, Final residual = 1.01393e-19, No Iterations 1
DILUPBiCG:  Solving for NO, Initial residual = 0, Final residual = 0, No Iterations 0
DILUPBiCG:  Solving for N, Initial residual = 0, Final residual = 0, No Iterations 0
DILUPBiCG:  Solving for O, Initial residual = 0, Final residual = 0, No Iterations 0
smoothSolver:  Solving for e, Initial residual = 0.000664044, Final residual = 1.71228e-14, No Iterations 2
implement your two-temperature model here
PIMPLE: Iteration 2
diagonal:  Solving for rho, Initial residual = 0, Final residual = 0, No Iterations 0
smoothSolver:  Solving for Ux, Initial residual = 0.00104666, Final residual = 1.33148e-14, No Iterations 2
DILUPBiCG:  Solving for O2, Initial residual = 0.000155212, Final residual = 6.36255e-20, No Iterations 1
DILUPBiCG:  Solving for NO, Initial residual = 0, Final residual = 0, No Iterations 0
DILUPBiCG:  Solving for N, Initial residual = 0, Final residual = 0, No Iterations 0
DILUPBiCG:  Solving for O, Initial residual = 0, Final residual = 0, No Iterations 0
smoothSolver:  Solving for e, Initial residual = 0.000271115, Final residual = 6.09589e-15, No Iterations 2
implement your two-temperature model here
ExecutionTime = 0.1151 s  ClockTime = 1 s

Courant Number mean: 0.0909392 max: 0.168564
Time = 0.00011s

PIMPLE: Iteration 1
diagonal:  Solving for rho, Initial residual = 0, Final residual = 0, No Iterations 0
smoothSolver:  Solving for Ux, Initial residual = 0.00816477, Final residual = 6.82713e-14, No Iterations 2
DILUPBiCG:  Solving for O2, Initial residual = 0.000164205, Final residual = 6.53326e-20, No Iterations 1
DILUPBiCG:  Solving for NO, Initial residual = 0, Final residual = 0, No Iterations 0
DILUPBiCG:  Solving for N, Initial residual = 0, Final residual = 0, No Iterations 0
DILUPBiCG:  Solving for O, Initial residual = 0, Final residual = 0, No Iterations 0
smoothSolver:  Solving for e, Initial residual = 0.000681452, Final residual = 1.79357e-14, No Iterations 2
implement your two-temperature model here
PIMPLE: Iteration 2
diagonal:  Solving for rho, Initial residual = 0, Final residual = 0, No Iterations 0
smoothSolver:  Solving for Ux, Initial residual = 0.00101423, Final residual = 1.31307e-14, No Iterations 2
DILUPBiCG:  Solving for O2, Initial residual = 0.000238558, Final residual = 4.68932e-20, No Iterations 1
DILUPBiCG:  Solving for NO, Initial residual = 0, Final residual = 0, No Iterations 0
DILUPBiCG:  Solving for N, Initial residual = 0, Final residual = 0, No Iterations 0
DILUPBiCG:  Solving for O, Initial residual = 0, Final residual = 0, No Iterations 0
smoothSolver:  Solving for e, Initial residual = 0.000279414, Final residual = 6.33795e-15, No Iterations 2
implement your two-temperature model here
ExecutionTime = 0.117394 s  ClockTime = 1 s

Courant Number mean: 0.0909681 max: 0.169532
Time = 0.000115s

PIMPLE: Iteration 1
diagonal:  Solving for rho, Initial residual = 0, Final residual = 0, No Iterations 0
smoothSolver:  Solving for Ux, Initial residual = 0.00780006, Final residual = 6.6414e-14, No Iterations 2
DILUPBiCG:  Solving for O2, Initial residual = 0.000208753, Final residual = 4.9658e-19, No Iterations 1
DILUPBiCG:  Solving for NO, Initial residual = 0, Final residual = 0, No Iterations 0
DILUPBiCG:  Solving for N, Initial residual = 0, Final residual = 0, No Iterations 0
DILUPBiCG:  Solving for O, Initial residual = 0, Final residual = 0, No Iterations 0
smoothSolver:  Solving for e, Initial residual = 0.000697191, Final residual = 1.86884e-14, No Iterations 2
implement your two-temperature model here
PIMPLE: Iteration 2
diagonal:  Solving for rho, Initial residual = 0, Final residual = 0, No Iterations 0
smoothSolver:  Solving for Ux, Initial residual = 0.000962148, Final residual = 1.2692e-14, No Iterations 2
DILUPBiCG:  Solving for O2, Initial residual = 0.000152708, Final residual = 7.35576e-20, No Iterations 1
DILUPBiCG:  Solving for NO, Initial residual = 0, Final residual = 0, No Iterations 0
DILUPBiCG:  Solving for N, Initial residual = 0, Final residual = 0, No Iterations 0
DILUPBiCG:  Solving for O, Initial residual = 0, Final residual = 0, No Iterations 0
smoothSolver:  Solving for e, Initial residual = 0.000273956, Final residual = 6.38787e-15, No Iterations 2
implement your two-temperature model here
ExecutionTime = 0.119567 s  ClockTime = 1 s

Courant Number mean: 0.0909974 max: 0.169919
Time = 0.00012s

PIMPLE: Iteration 1
diagonal:  Solving for rho, Initial residual = 0, Final residual = 0, No Iterations 0
smoothSolver:  Solving for Ux, Initial residual = 0.00746619, Final residual = 6.45551e-14, No Iterations 2
DILUPBiCG:  Solving for O2, Initial residual = 0.000150173, Final residual = 9.31172e-20, No Iterations 1
DILUPBiCG:  Solving for NO, Initial residual = 0, Final residual = 0, No Iterations 0
DILUPBiCG:  Solving for N, Initial residual = 0, Final residual = 0, No Iterations 0
DILUPBiCG:  Solving for O, Initial residual = 0, Final residual = 0, No Iterations 0
smoothSolver:  Solving for e, Initial residual = 0.000705714, Final residual = 1.90686e-14, No Iterations 2
implement your two-temperature model here
PIMPLE: Iteration 2
diagonal:  Solving for rho, Initial residual = 0, Final residual = 0, No Iterations 0
smoothSolver:  Solving for Ux, Initial residual = 0.000903663, Final residual = 1.21238e-14, No Iterations 2
DILUPBiCG:  Solving for O2, Initial residual = 0.000194809, Final residual = 2.6319e-20, No Iterations 1
DILUPBiCG:  Solving for NO, Initial residual = 0, Final residual = 0, No Iterations 0
DILUPBiCG:  Solving for N, Initial residual = 0, Final residual = 0, No Iterations 0
DILUPBiCG:  Solving for O, Initial residual = 0, Final residual = 0, No Iterations 0
smoothSolver:  Solving for e, Initial residual = 0.000266901, Final residual = 6.35933e-15, No Iterations 2
implement your two-temperature model here
ExecutionTime = 0.121914 s  ClockTime = 1 s

Courant Number mean: 0.0910262 max: 0.170128
Time = 0.000125s

PIMPLE: Iteration 1
diagonal:  Solving for rho, Initial residual = 0, Final residual = 0, No Iterations 0
smoothSolver:  Solving for Ux, Initial residual = 0.00715584, Final residual = 6.25993e-14, No Iterations 2
DILUPBiCG:  Solving for O2, Initial residual = 0.000204642, Final residual = 5.10677e-20, No Iterations 1
DILUPBiCG:  Solving for NO, Initial residual = 0, Final residual = 0, No Iterations 0
DILUPBiCG:  Solving for N, Initial residual = 0, Final residual = 0, No Iterations 0
DILUPBiCG:  Solving for O, Initial residual = 0, Final residual = 0, No Iterations 0
smoothSolver:  Solving for e, Initial residual = 0.000706518, Final residual = 1.91428e-14, No Iterations 2
implement your two-temperature model here
PIMPLE: Iteration 2
diagonal:  Solving for rho, Initial residual = 0, Final residual = 0, No Iterations 0
smoothSolver:  Solving for Ux, Initial residual = 0.000882767, Final residual = 1.22472e-14, No Iterations 2
DILUPBiCG:  Solving for O2, Initial residual = 0.000313688, Final residual = 3.21931e-20, No Iterations 1
DILUPBiCG:  Solving for NO, Initial residual = 0, Final residual = 0, No Iterations 0
DILUPBiCG:  Solving for N, Initial residual = 0, Final residual = 0, No Iterations 0
DILUPBiCG:  Solving for O, Initial residual = 0, Final residual = 0, No Iterations 0
smoothSolver:  Solving for e, Initial residual = 0.000268203, Final residual = 6.83379e-15, No Iterations 2
implement your two-temperature model here
ExecutionTime = 0.124115 s  ClockTime = 1 s

Courant Number mean: 0.0910555 max: 0.17038
Time = 0.00013s

PIMPLE: Iteration 1
diagonal:  Solving for rho, Initial residual = 0, Final residual = 0, No Iterations 0
smoothSolver:  Solving for Ux, Initial residual = 0.00687349, Final residual = 6.09448e-14, No Iterations 2
DILUPBiCG:  Solving for O2, Initial residual = 0.000199686, Final residual = 4.11827e-20, No Iterations 1
DILUPBiCG:  Solving for NO, Initial residual = 0, Final residual = 0, No Iterations 0
DILUPBiCG:  Solving for N, Initial residual = 0, Final residual = 0, No Iterations 0
DILUPBiCG:  Solving for O, Initial residual = 0, Final residual = 0, No Iterations 0
smoothSolver:  Solving for e, Initial residual = 0.000713342, Final residual = 1.96087e-14, No Iterations 2
implement your two-temperature model here
PIMPLE: Iteration 2
diagonal:  Solving for rho, Initial residual = 0, Final residual = 0, No Iterations 0
smoothSolver:  Solving for Ux, Initial residual = 0.000805403, Final residual = 1.14008e-14, No Iterations 2
DILUPBiCG:  Solving for O2, Initial residual = 0.000212948, Final residual = 7.34748e-20, No Iterations 1
DILUPBiCG:  Solving for NO, Initial residual = 0, Final residual = 0, No Iterations 0
DILUPBiCG:  Solving for N, Initial residual = 0, Final residual = 0, No Iterations 0
DILUPBiCG:  Solving for O, Initial residual = 0, Final residual = 0, No Iterations 0
smoothSolver:  Solving for e, Initial residual = 0.000260788, Final residual = 6.46196e-15, No Iterations 2
implement your two-temperature model here
ExecutionTime = 0.126476 s  ClockTime = 1 s

Courant Number mean: 0.0910856 max: 0.171628
Time = 0.000135s

PIMPLE: Iteration 1
diagonal:  Solving for rho, Initial residual = 0, Final residual = 0, No Iterations 0
smoothSolver:  Solving for Ux, Initial residual = 0.00661538, Final residual = 5.94435e-14, No Iterations 2
DILUPBiCG:  Solving for O2, Initial residual = 0.000235156, Final residual = 2.35459e-20, No Iterations 1
DILUPBiCG:  Solving for NO, Initial residual = 0, Final residual = 0, No Iterations 0
DILUPBiCG:  Solving for N, Initial residual = 0, Final residual = 0, No Iterations 0
DILUPBiCG:  Solving for O, Initial residual = 0, Final residual = 0, No Iterations 0
smoothSolver:  Solving for e, Initial residual = 0.000728843, Final residual = 2.0352e-14, No Iterations 2
implement your two-temperature model here
PIMPLE: Iteration 2
diagonal:  Solving for rho, Initial residual = 0, Final residual = 0, No Iterations 0
smoothSolver:  Solving for Ux, Initial residual = 0.000757927, Final residual = 1.06911e-14, No Iterations 2
DILUPBiCG:  Solving for O2, Initial residual = 0.000234424, Final residual = 2.24549e-19, No Iterations 1
DILUPBiCG:  Solving for NO, Initial residual = 0, Final residual = 0, No Iterations 0
DILUPBiCG:  Solving for N, Initial residual = 0, Final residual = 0, No Iterations 0
DILUPBiCG:  Solving for O, Initial residual = 0, Final residual = 0, No Iterations 0
smoothSolver:  Solving for e, Initial residual = 0.00025652, Final residual = 6.38482e-15, No Iterations 2
implement your two-temperature model here
ExecutionTime = 0.128976 s  ClockTime = 1 s

Courant Number mean: 0.091115 max: 0.17218
Time = 0.00014s

PIMPLE: Iteration 1
diagonal:  Solving for rho, Initial residual = 0, Final residual = 0, No Iterations 0
smoothSolver:  Solving for Ux, Initial residual = 0.00637233, Final residual = 5.77665e-14, No Iterations 2
DILUPBiCG:  Solving for O2, Initial residual = 0.000206294, Final residual = 2.6302e-20, No Iterations 1
DILUPBiCG:  Solving for NO, Initial residual = 0, Final residual = 0, No Iterations 0
DILUPBiCG:  Solving for N, Initial residual = 0, Final residual = 0, No Iterations 0
DILUPBiCG:  Solving for O, Initial residual = 0, Final residual = 0, No Iterations 0
smoothSolver:  Solving for e, Initial residual = 0.000738496, Final residual = 2.07434e-14, No Iterations 2
implement your two-temperature model here
PIMPLE: Iteration 2
diagonal:  Solving for rho, Initial residual = 0, Final residual = 0, No Iterations 0
smoothSolver:  Solving for Ux, Initial residual = 0.000776541, Final residual = 1.12172e-14, No Iterations 2
DILUPBiCG:  Solving for O2, Initial residual = 0.000188204, Final residual = 5.44574e-20, No Iterations 1
DILUPBiCG:  Solving for NO, Initial residual = 0, Final residual = 0, No Iterations 0
DILUPBiCG:  Solving for N, Initial residual = 0, Final residual = 0, No Iterations 0
DILUPBiCG:  Solving for O, Initial residual = 0, Final residual = 0, No Iterations 0
smoothSolver:  Solving for e, Initial residual = 0.000257601, Final residual = 6.75203e-15, No Iterations 2
implement your two-temperature model here
ExecutionTime = 0.1316 s  ClockTime = 1 s

Courant Number mean: 0.091144 max: 0.172421
Time = 0.000145s

PIMPLE: Iteration 1
diagonal:  Solving for rho, Initial residual = 0, Final residual = 0, No Iterations 0
smoothSolver:  Solving for Ux, Initial residual = 0.00615389, Final residual = 5.62425e-14, No Iterations 2
DILUPBiCG:  Solving for O2, Initial residual = 0.000221959, Final residual = 6.93344e-20, No Iterations 1
DILUPBiCG:  Solving for NO, Initial residual = 0, Final residual = 0, No Iterations 0
DILUPBiCG:  Solving for N, Initial residual = 0, Final residual = 0, No Iterations 0
DILUPBiCG:  Solving for O, Initial residual = 0, Final residual = 0, No Iterations 0
smoothSolver:  Solving for e, Initial residual = 0.000742772, Final residual = 2.09754e-14, No Iterations 2
implement your two-temperature model here
PIMPLE: Iteration 2
diagonal:  Solving for rho, Initial residual = 0, Final residual = 0, No Iterations 0
smoothSolver:  Solving for Ux, Initial residual = 0.000755533, Final residual = 1.11314e-14, No Iterations 2
DILUPBiCG:  Solving for O2, Initial residual = 0.000282267, Final residual = 1.66909e-20, No Iterations 1
DILUPBiCG:  Solving for NO, Initial residual = 0, Final residual = 0, No Iterations 0
DILUPBiCG:  Solving for N, Initial residual = 0, Final residual = 0, No Iterations 0
DILUPBiCG:  Solving for O, Initial residual = 0, Final residual = 0, No Iterations 0
smoothSolver:  Solving for e, Initial residual = 0.000258462, Final residual = 7.09346e-15, No Iterations 2
implement your two-temperature model here
ExecutionTime = 0.134148 s  ClockTime = 1 s

Courant Number mean: 0.091174 max: 0.172473
Time = 0.00015s

PIMPLE: Iteration 1
diagonal:  Solving for rho, Initial residual = 0, Final residual = 0, No Iterations 0
smoothSolver:  Solving for Ux, Initial residual = 0.00595399, Final residual = 5.50166e-14, No Iterations 2
DILUPBiCG:  Solving for O2, Initial residual = 0.000221132, Final residual = 2.05635e-19, No Iterations 1
DILUPBiCG:  Solving for NO, Initial residual = 0, Final residual = 0, No Iterations 0
DILUPBiCG:  Solving for N, Initial residual = 0, Final residual = 0, No Iterations 0
DILUPBiCG:  Solving for O, Initial residual = 0, Final residual = 0, No Iterations 0
smoothSolver:  Solving for e, Initial residual = 0.000742976, Final residual = 2.11286e-14, No Iterations 2
implement your two-temperature model here
PIMPLE: Iteration 2
diagonal:  Solving for rho, Initial residual = 0, Final residual = 0, No Iterations 0
smoothSolver:  Solving for Ux, Initial residual = 0.000699445, Final residual = 1.03578e-14, No Iterations 2
DILUPBiCG:  Solving for O2, Initial residual = 0.000191473, Final residual = 2.91443e-20, No Iterations 1
DILUPBiCG:  Solving for NO, Initial residual = 0, Final residual = 0, No Iterations 0
DILUPBiCG:  Solving for N, Initial residual = 0, Final residual = 0, No Iterations 0
DILUPBiCG:  Solving for O, Initial residual = 0, Final residual = 0, No Iterations 0
smoothSolver:  Solving for e, Initial residual = 0.000267302, Final residual = 6.94529e-15, No Iterations 2
implement your two-temperature model here
ExecutionTime = 0.136421 s  ClockTime = 1 s

Courant Number mean: 0.0912043 max: 0.173102
Time = 0.000155s

PIMPLE: Iteration 1
diagonal:  Solving for rho, Initial residual = 0, Final residual = 0, No Iterations 0
smoothSolver:  Solving for Ux, Initial residual = 0.00576511, Final residual = 5.36978e-14, No Iterations 2
DILUPBiCG:  Solving for O2, Initial residual = 0.000207088, Final residual = 3.85862e-20, No Iterations 1
DILUPBiCG:  Solving for NO, Initial residual = 0, Final residual = 0, No Iterations 0
DILUPBiCG:  Solving for N, Initial residual = 0, Final residual = 0, No Iterations 0
DILUPBiCG:  Solving for O, Initial residual = 0, Final residual = 0, No Iterations 0
smoothSolver:  Solving for e, Initial residual = 0.000754694, Final residual = 2.1713e-14, No Iterations 2
implement your two-temperature model here
PIMPLE: Iteration 2
diagonal:  Solving for rho, Initial residual = 0, Final residual = 0, No Iterations 0
smoothSolver:  Solving for Ux, Initial residual = 0.000662729, Final residual = 9.92337e-15, No Iterations 2
DILUPBiCG:  Solving for O2, Initial residual = 0.00022946, Final residual = 1.90842e-20, No Iterations 1
DILUPBiCG:  Solving for NO, Initial residual = 0, Final residual = 0, No Iterations 0
DILUPBiCG:  Solving for N, Initial residual = 0, Final residual = 0, No Iterations 0
DILUPBiCG:  Solving for O, Initial residual = 0, Final residual = 0, No Iterations 0
smoothSolver:  Solving for e, Initial residual = 0.000280136, Final residual = 6.61248e-15, No Iterations 2
implement your two-temperature model here
ExecutionTime = 0.138817 s  ClockTime = 1 s

Courant Number mean: 0.0912335 max: 0.173884
Time = 0.00016s

PIMPLE: Iteration 1
diagonal:  Solving for rho, Initial residual = 0, Final residual = 0, No Iterations 0
smoothSolver:  Solving for Ux, Initial residual = 0.00558354, Final residual = 5.22656e-14, No Iterations 2
DILUPBiCG:  Solving for O2, Initial residual = 0.000240886, Final residual = 6.55676e-20, No Iterations 1
DILUPBiCG:  Solving for NO, Initial residual = 0, Final residual = 0, No Iterations 0
DILUPBiCG:  Solving for N, Initial residual = 0, Final residual = 0, No Iterations 0
DILUPBiCG:  Solving for O, Initial residual = 0, Final residual = 0, No Iterations 0
smoothSolver:  Solving for e, Initial residual = 0.00076464, Final residual = 2.21488e-14, No Iterations 2
implement your two-temperature model here
PIMPLE: Iteration 2
diagonal:  Solving for rho, Initial residual = 0, Final residual = 0, No Iterations 0
smoothSolver:  Solving for Ux, Initial residual = 0.000656114, Final residual = 1.00941e-14, No Iterations 2
DILUPBiCG:  Solving for O2, Initial residual = 0.000278136, Final residual = 4.21822e-19, No Iterations 1
DILUPBiCG:  Solving for NO, Initial residual = 0, Final residual = 0, No Iterations 0
DILUPBiCG:  Solving for N, Initial residual = 0, Final residual = 0, No Iterations 0
DILUPBiCG:  Solving for O, Initial residual = 0, Final residual = 0, No Iterations 0
smoothSolver:  Solving for e, Initial residual = 0.000284436, Final residual = 7.17884e-15, No Iterations 2
implement your two-temperature model here
ExecutionTime = 0.141098 s  ClockTime = 1 s

Courant Number mean: 0.0912632 max: 0.174206
Time = 0.000165s

PIMPLE: Iteration 1
diagonal:  Solving for rho, Initial residual = 0, Final residual = 0, No Iterations 0
smoothSolver:  Solving for Ux, Initial residual = 0.00541505, Final residual = 5.10931e-14, No Iterations 2
DILUPBiCG:  Solving for O2, Initial residual = 0.00028046, Final residual = 4.75596e-20, No Iterations 1
DILUPBiCG:  Solving for NO, Initial residual = 0, Final residual = 0, No Iterations 0
DILUPBiCG:  Solving for N, Initial residual = 0, Final residual = 0, No Iterations 0
DILUPBiCG:  Solving for O, Initial residual = 0, Final residual = 0, No Iterations 0
smoothSolver:  Solving for e, Initial residual = 0.000771206, Final residual = 2.25297e-14, No Iterations 2
implement your two-temperature model here
PIMPLE: Iteration 2
diagonal:  Solving for rho, Initial residual = 0, Final residual = 0, No Iterations 0
smoothSolver:  Solving for Ux, Initial residual = 0.000633307, Final residual = 9.80798e-15, No Iterations 2
DILUPBiCG:  Solving for O2, Initial residual = 0.00027645, Final residual = 2.82971e-19, No Iterations 1
DILUPBiCG:  Solving for NO, Initial residual = 0, Final residual = 0, No Iterations 0
DILUPBiCG:  Solving for N, Initial residual = 0, Final residual = 0, No Iterations 0
DILUPBiCG:  Solving for O, Initial residual = 0, Final residual = 0, No Iterations 0
smoothSolver:  Solving for e, Initial residual = 0.00028354, Final residual = 7.36209e-15, No Iterations 2
implement your two-temperature model here
ExecutionTime = 0.143485 s  ClockTime = 1 s

Courant Number mean: 0.0912938 max: 0.174294
Time = 0.00017s

PIMPLE: Iteration 1
diagonal:  Solving for rho, Initial residual = 0, Final residual = 0, No Iterations 0
smoothSolver:  Solving for Ux, Initial residual = 0.00525754, Final residual = 5.00051e-14, No Iterations 2
DILUPBiCG:  Solving for O2, Initial residual = 0.000292846, Final residual = 4.89341e-20, No Iterations 1
DILUPBiCG:  Solving for NO, Initial residual = 0, Final residual = 0, No Iterations 0
DILUPBiCG:  Solving for N, Initial residual = 0, Final residual = 0, No Iterations 0
DILUPBiCG:  Solving for O, Initial residual = 0, Final residual = 0, No Iterations 0
smoothSolver:  Solving for e, Initial residual = 0.000774017, Final residual = 2.27265e-14, No Iterations 2
implement your two-temperature model here
PIMPLE: Iteration 2
diagonal:  Solving for rho, Initial residual = 0, Final residual = 0, No Iterations 0
smoothSolver:  Solving for Ux, Initial residual = 0.000588958, Final residual = 9.05351e-15, No Iterations 2
DILUPBiCG:  Solving for O2, Initial residual = 0.000266569, Final residual = 9.70969e-20, No Iterations 1
DILUPBiCG:  Solving for NO, Initial residual = 0, Final residual = 0, No Iterations 0
DILUPBiCG:  Solving for N, Initial residual = 0, Final residual = 0, No Iterations 0
DILUPBiCG:  Solving for O, Initial residual = 0, Final residual = 0, No Iterations 0
smoothSolver:  Solving for e, Initial residual = 0.000277631, Final residual = 7.14394e-15, No Iterations 2
implement your two-temperature model here
ExecutionTime = 0.146011 s  ClockTime = 1 s

Courant Number mean: 0.0913235 max: 0.174276
Time = 0.000175s

PIMPLE: Iteration 1
diagonal:  Solving for rho, Initial residual = 0, Final residual = 0, No Iterations 0
smoothSolver:  Solving for Ux, Initial residual = 0.0051049, Final residual = 4.87451e-14, No Iterations 2
DILUPBiCG:  Solving for O2, Initial residual = 0.000305186, Final residual = 3.388e-20, No Iterations 1
DILUPBiCG:  Solving for NO, Initial residual = 0, Final residual = 0, No Iterations 0
DILUPBiCG:  Solving for N, Initial residual = 0, Final residual = 0, No Iterations 0
DILUPBiCG:  Solving for O, Initial residual = 0, Final residual = 0, No Iterations 0
smoothSolver:  Solving for e, Initial residual = 0.000775081, Final residual = 2.27738e-14, No Iterations 2
implement your two-temperature model here
PIMPLE: Iteration 2
diagonal:  Solving for rho, Initial residual = 0, Final residual = 0, No Iterations 0
smoothSolver:  Solving for Ux, Initial residual = 0.000597371, Final residual = 9.36676e-15, No Iterations 2
DILUPBiCG:  Solving for O2, Initial residual = 0.000226927, Final residual = 4.18326e-20, No Iterations 1
DILUPBiCG:  Solving for NO, Initial residual = 0, Final residual = 0, No Iterations 0
DILUPBiCG:  Solving for N, Initial residual = 0, Final residual = 0, No Iterations 0
DILUPBiCG:  Solving for O, Initial residual = 0, Final residual = 0, No Iterations 0
smoothSolver:  Solving for e, Initial residual = 0.00027134, Final residual = 6.97375e-15, No Iterations 2
implement your two-temperature model here
ExecutionTime = 0.148355 s  ClockTime = 1 s

Courant Number mean: 0.091353 max: 0.175146
Time = 0.00018s

PIMPLE: Iteration 1
diagonal:  Solving for rho, Initial residual = 0, Final residual = 0, No Iterations 0
smoothSolver:  Solving for Ux, Initial residual = 0.00496049, Final residual = 4.75851e-14, No Iterations 2
DILUPBiCG:  Solving for O2, Initial residual = 0.000324091, Final residual = 3.61869e-20, No Iterations 1
DILUPBiCG:  Solving for NO, Initial residual = 0, Final residual = 0, No Iterations 0
DILUPBiCG:  Solving for N, Initial residual = 0, Final residual = 0, No Iterations 0
DILUPBiCG:  Solving for O, Initial residual = 0, Final residual = 0, No Iterations 0
smoothSolver:  Solving for e, Initial residual = 0.00078482, Final residual = 2.32719e-14, No Iterations 2
implement your two-temperature model here
PIMPLE: Iteration 2
diagonal:  Solving for rho, Initial residual = 0, Final residual = 0, No Iterations 0
smoothSolver:  Solving for Ux, Initial residual = 0.000581433, Final residual = 9.28596e-15, No Iterations 2
DILUPBiCG:  Solving for O2, Initial residual = 0.000260706, Final residual = 7.02281e-20, No Iterations 1
DILUPBiCG:  Solving for NO, Initial residual = 0, Final residual = 0, No Iterations 0
DILUPBiCG:  Solving for N, Initial residual = 0, Final residual = 0, No Iterations 0
DILUPBiCG:  Solving for O, Initial residual = 0, Final residual = 0, No Iterations 0
smoothSolver:  Solving for e, Initial residual = 0.000272546, Final residual = 7.36681e-15, No Iterations 2
implement your two-temperature model here
ExecutionTime = 0.150782 s  ClockTime = 1 s

Courant Number mean: 0.0913834 max: 0.175583
Time = 0.000185s

PIMPLE: Iteration 1
diagonal:  Solving for rho, Initial residual = 0, Final residual = 0, No Iterations 0
smoothSolver:  Solving for Ux, Initial residual = 0.00482824, Final residual = 4.66567e-14, No Iterations 2
DILUPBiCG:  Solving for O2, Initial residual = 0.00031253, Final residual = 9.21387e-20, No Iterations 1
DILUPBiCG:  Solving for NO, Initial residual = 0, Final residual = 0, No Iterations 0
DILUPBiCG:  Solving for N, Initial residual = 0, Final residual = 0, No Iterations 0
DILUPBiCG:  Solving for O, Initial residual = 0, Final residual = 0, No Iterations 0
smoothSolver:  Solving for e, Initial residual = 0.000792996, Final residual = 2.37488e-14, No Iterations 2
implement your two-temperature model here
PIMPLE: Iteration 2
diagonal:  Solving for rho, Initial residual = 0, Final residual = 0, No Iterations 0
smoothSolver:  Solving for Ux, Initial residual = 0.00054589, Final residual = 8.7637e-15, No Iterations 2
DILUPBiCG:  Solving for O2, Initial residual = 0.000275513, Final residual = 1.65013e-19, No Iterations 1
DILUPBiCG:  Solving for NO, Initial residual = 0, Final residual = 0, No Iterations 0
DILUPBiCG:  Solving for N, Initial residual = 0, Final residual = 0, No Iterations 0
DILUPBiCG:  Solving for O, Initial residual = 0, Final residual = 0, No Iterations 0
smoothSolver:  Solving for e, Initial residual = 0.000270814, Final residual = 7.34318e-15, No Iterations 2
implement your two-temperature model here
ExecutionTime = 0.153021 s  ClockTime = 1 s

Courant Number mean: 0.0914137 max: 0.175746
Time = 0.00019s

PIMPLE: Iteration 1
diagonal:  Solving for rho, Initial residual = 0, Final residual = 0, No Iterations 0
smoothSolver:  Solving for Ux, Initial residual = 0.00470124, Final residual = 4.56212e-14, No Iterations 2
DILUPBiCG:  Solving for O2, Initial residual = 0.000288576, Final residual = 1.68103e-19, No Iterations 1
DILUPBiCG:  Solving for NO, Initial residual = 0, Final residual = 0, No Iterations 0
DILUPBiCG:  Solving for N, Initial residual = 0, Final residual = 0, No Iterations 0
DILUPBiCG:  Solving for O, Initial residual = 0, Final residual = 0, No Iterations 0
smoothSolver:  Solving for e, Initial residual = 0.000796909, Final residual = 2.39243e-14, No Iterations 2
implement your two-temperature model here
PIMPLE: Iteration 2
diagonal:  Solving for rho, Initial residual = 0, Final residual = 0, No Iterations 0
smoothSolver:  Solving for Ux, Initial residual = 0.000525439, Final residual = 8.45167e-15, No Iterations 2
DILUPBiCG:  Solving for O2, Initial residual = 0.00028123, Final residual = 2.02036e-20, No Iterations 1
DILUPBiCG:  Solving for NO, Initial residual = 0, Final residual = 0, No Iterations 0
DILUPBiCG:  Solving for N, Initial residual = 0, Final residual = 0, No Iterations 0
DILUPBiCG:  Solving for O, Initial residual = 0, Final residual = 0, No Iterations 0
smoothSolver:  Solving for e, Initial residual = 0.000265641, Final residual = 7.07987e-15, No Iterations 2
implement your two-temperature model here
ExecutionTime = 0.155415 s  ClockTime = 1 s

Courant Number mean: 0.0914431 max: 0.175723
Time = 0.000195s

PIMPLE: Iteration 1
diagonal:  Solving for rho, Initial residual = 0, Final residual = 0, No Iterations 0
smoothSolver:  Solving for Ux, Initial residual = 0.00457709, Final residual = 4.45177e-14, No Iterations 2
DILUPBiCG:  Solving for O2, Initial residual = 0.000321521, Final residual = 1.14011e-19, No Iterations 1
DILUPBiCG:  Solving for NO, Initial residual = 0, Final residual = 0, No Iterations 0
DILUPBiCG:  Solving for N, Initial residual = 0, Final residual = 0, No Iterations 0
DILUPBiCG:  Solving for O, Initial residual = 0, Final residual = 0, No Iterations 0
smoothSolver:  Solving for e, Initial residual = 0.000796636, Final residual = 2.38857e-14, No Iterations 2
implement your two-temperature model here
PIMPLE: Iteration 2
diagonal:  Solving for rho, Initial residual = 0, Final residual = 0, No Iterations 0
smoothSolver:  Solving for Ux, Initial residual = 0.000524779, Final residual = 8.56768e-15, No Iterations 2
DILUPBiCG:  Solving for O2, Initial residual = 0.000286966, Final residual = 7.42287e-20, No Iterations 1
DILUPBiCG:  Solving for NO, Initial residual = 0, Final residual = 0, No Iterations 0
DILUPBiCG:  Solving for N, Initial residual = 0, Final residual = 0, No Iterations 0
DILUPBiCG:  Solving for O, Initial residual = 0, Final residual = 0, No Iterations 0
smoothSolver:  Solving for e, Initial residual = 0.000263984, Final residual = 7.17703e-15, No Iterations 2
implement your two-temperature model here
ExecutionTime = 0.157741 s  ClockTime = 1 s

Courant Number mean: 0.0914732 max: 0.176084
Time = 0.0002s

PIMPLE: Iteration 1
diagonal:  Solving for rho, Initial residual = 0, Final residual = 0, No Iterations 0
smoothSolver:  Solving for Ux, Initial residual = 0.00446173, Final residual = 4.36248e-14, No Iterations 2
DILUPBiCG:  Solving for O2, Initial residual = 0.000291814, Final residual = 1.74148e-19, No Iterations 1
DILUPBiCG:  Solving for NO, Initial residual = 0, Final residual = 0, No Iterations 0
DILUPBiCG:  Solving for N, Initial residual = 0, Final residual = 0, No Iterations 0
DILUPBiCG:  Solving for O, Initial residual = 0, Final residual = 0, No Iterations 0
smoothSolver:  Solving for e, Initial residual = 0.000802044, Final residual = 2.42404e-14, No Iterations 2
implement your two-temperature model here
PIMPLE: Iteration 2
diagonal:  Solving for rho, Initial residual = 0, Final residual = 0, No Iterations 0
smoothSolver:  Solving for Ux, Initial residual = 0.000505366, Final residual = 8.30977e-15, No Iterations 2
DILUPBiCG:  Solving for O2, Initial residual = 0.000234173, Final residual = 3.59523e-20, No Iterations 1
DILUPBiCG:  Solving for NO, Initial residual = 0, Final residual = 0, No Iterations 0
DILUPBiCG:  Solving for N, Initial residual = 0, Final residual = 0, No Iterations 0
DILUPBiCG:  Solving for O, Initial residual = 0, Final residual = 0, No Iterations 0
smoothSolver:  Solving for e, Initial residual = 0.000264766, Final residual = 7.41659e-15, No Iterations 2
implement your two-temperature model here
ExecutionTime = 0.160175 s  ClockTime = 1 s

Courant Number mean: 0.0915038 max: 0.176633
Time = 0.000205s

PIMPLE: Iteration 1
diagonal:  Solving for rho, Initial residual = 0, Final residual = 0, No Iterations 0
smoothSolver:  Solving for Ux, Initial residual = 0.00435344, Final residual = 4.27807e-14, No Iterations 2
DILUPBiCG:  Solving for O2, Initial residual = 0.000269529, Final residual = 3.33087e-20, No Iterations 1
DILUPBiCG:  Solving for NO, Initial residual = 0, Final residual = 0, No Iterations 0
DILUPBiCG:  Solving for N, Initial residual = 0, Final residual = 0, No Iterations 0
DILUPBiCG:  Solving for O, Initial residual = 0, Final residual = 0, No Iterations 0
smoothSolver:  Solving for e, Initial residual = 0.000810346, Final residual = 2.46938e-14, No Iterations 2
implement your two-temperature model here
PIMPLE: Iteration 2
diagonal:  Solving for rho, Initial residual = 0, Final residual = 0, No Iterations 0
smoothSolver:  Solving for Ux, Initial residual = 0.000475355, Final residual = 7.78201e-15, No Iterations 2
DILUPBiCG:  Solving for O2, Initial residual = 0.000289406, Final residual = 1.35489e-19, No Iterations 1
DILUPBiCG:  Solving for NO, Initial residual = 0, Final residual = 0, No Iterations 0
DILUPBiCG:  Solving for N, Initial residual = 0, Final residual = 0, No Iterations 0
DILUPBiCG:  Solving for O, Initial residual = 0, Final residual = 0, No Iterations 0
smoothSolver:  Solving for e, Initial residual = 0.000279568, Final residual = 7.28915e-15, No Iterations 2
implement your two-temperature model here
ExecutionTime = 0.162517 s  ClockTime = 1 s

Courant Number mean: 0.0915335 max: 0.176869
Time = 0.00021s

PIMPLE: Iteration 1
diagonal:  Solving for rho, Initial residual = 0, Final residual = 0, No Iterations 0
smoothSolver:  Solving for Ux, Initial residual = 0.0042471, Final residual = 4.17732e-14, No Iterations 2
DILUPBiCG:  Solving for O2, Initial residual = 0.000272801, Final residual = 4.60581e-20, No Iterations 1
DILUPBiCG:  Solving for NO, Initial residual = 0, Final residual = 0, No Iterations 0
DILUPBiCG:  Solving for N, Initial residual = 0, Final residual = 0, No Iterations 0
DILUPBiCG:  Solving for O, Initial residual = 0, Final residual = 0, No Iterations 0
smoothSolver:  Solving for e, Initial residual = 0.000814522, Final residual = 2.48521e-14, No Iterations 2
implement your two-temperature model here
PIMPLE: Iteration 2
diagonal:  Solving for rho, Initial residual = 0, Final residual = 0, No Iterations 0
smoothSolver:  Solving for Ux, Initial residual = 0.000483433, Final residual = 8.04663e-15, No Iterations 2
DILUPBiCG:  Solving for O2, Initial residual = 0.00022013, Final residual = 7.14631e-20, No Iterations 1
DILUPBiCG:  Solving for NO, Initial residual = 0, Final residual = 0, No Iterations 0
DILUPBiCG:  Solving for N, Initial residual = 0, Final residual = 0, No Iterations 0
DILUPBiCG:  Solving for O, Initial residual = 0, Final residual = 0, No Iterations 0
smoothSolver:  Solving for e, Initial residual = 0.000278983, Final residual = 7.0998e-15, No Iterations 2
implement your two-temperature model here
ExecutionTime = 0.164863 s  ClockTime = 1 s

Courant Number mean: 0.0915631 max: 0.176919
Time = 0.000215s

PIMPLE: Iteration 1
diagonal:  Solving for rho, Initial residual = 0, Final residual = 0, No Iterations 0
smoothSolver:  Solving for Ux, Initial residual = 0.00414655, Final residual = 4.09011e-14, No Iterations 2
DILUPBiCG:  Solving for O2, Initial residual = 0.000249711, Final residual = 1.95822e-19, No Iterations 1
DILUPBiCG:  Solving for NO, Initial residual = 0, Final residual = 0, No Iterations 0
DILUPBiCG:  Solving for N, Initial residual = 0, Final residual = 0, No Iterations 0
DILUPBiCG:  Solving for O, Initial residual = 0, Final residual = 0, No Iterations 0
smoothSolver:  Solving for e, Initial residual = 0.000816128, Final residual = 2.49501e-14, No Iterations 2
implement your two-temperature model here
PIMPLE: Iteration 2
diagonal:  Solving for rho, Initial residual = 0, Final residual = 0, No Iterations 0
smoothSolver:  Solving for Ux, Initial residual = 0.000469958, Final residual = 7.94649e-15, No Iterations 2
DILUPBiCG:  Solving for O2, Initial residual = 0.000244833, Final residual = 1.10983e-19, No Iterations 1
DILUPBiCG:  Solving for NO, Initial residual = 0, Final residual = 0, No Iterations 0
DILUPBiCG:  Solving for N, Initial residual = 0, Final residual = 0, No Iterations 0
DILUPBiCG:  Solving for O, Initial residual = 0, Final residual = 0, No Iterations 0
smoothSolver:  Solving for e, Initial residual = 0.00028154, Final residual = 7.48438e-15, No Iterations 2
implement your two-temperature model here
ExecutionTime = 0.167224 s  ClockTime = 1 s

Courant Number mean: 0.0915938 max: 0.176835
Time = 0.00022s

PIMPLE: Iteration 1
diagonal:  Solving for rho, Initial residual = 0, Final residual = 0, No Iterations 0
smoothSolver:  Solving for Ux, Initial residual = 0.00405386, Final residual = 4.01868e-14, No Iterations 2
DILUPBiCG:  Solving for O2, Initial residual = 0.000254609, Final residual = 9.69621e-19, No Iterations 1
DILUPBiCG:  Solving for NO, Initial residual = 0, Final residual = 0, No Iterations 0
DILUPBiCG:  Solving for N, Initial residual = 0, Final residual = 0, No Iterations 0
DILUPBiCG:  Solving for O, Initial residual = 0, Final residual = 0, No Iterations 0
smoothSolver:  Solving for e, Initial residual = 0.000816682, Final residual = 2.50495e-14, No Iterations 2
implement your two-temperature model here
PIMPLE: Iteration 2
diagonal:  Solving for rho, Initial residual = 0, Final residual = 0, No Iterations 0
smoothSolver:  Solving for Ux, Initial residual = 0.000443565, Final residual = 7.47699e-15, No Iterations 2
DILUPBiCG:  Solving for O2, Initial residual = 0.000324764, Final residual = 5.86505e-19, No Iterations 1
DILUPBiCG:  Solving for NO, Initial residual = 0, Final residual = 0, No Iterations 0
DILUPBiCG:  Solving for N, Initial residual = 0, Final residual = 0, No Iterations 0
DILUPBiCG:  Solving for O, Initial residual = 0, Final residual = 0, No Iterations 0
smoothSolver:  Solving for e, Initial residual = 0.000279951, Final residual = 7.49473e-15, No Iterations 2
implement your two-temperature model here
ExecutionTime = 0.169456 s  ClockTime = 1 s

Courant Number mean: 0.091624 max: 0.177404
Time = 0.000225s

PIMPLE: Iteration 1
diagonal:  Solving for rho, Initial residual = 0, Final residual = 0, No Iterations 0
smoothSolver:  Solving for Ux, Initial residual = 0.00396276, Final residual = 3.93455e-14, No Iterations 2
DILUPBiCG:  Solving for O2, Initial residual = 0.000331236, Final residual = 6.74576e-20, No Iterations 1
DILUPBiCG:  Solving for NO, Initial residual = 0, Final residual = 0, No Iterations 0
DILUPBiCG:  Solving for N, Initial residual = 0, Final residual = 0, No Iterations 0
DILUPBiCG:  Solving for O, Initial residual = 0, Final residual = 0, No Iterations 0
smoothSolver:  Solving for e, Initial residual = 0.000823484, Final residual = 2.53919e-14, No Iterations 2
implement your two-temperature model here
PIMPLE: Iteration 2
diagonal:  Solving for rho, Initial residual = 0, Final residual = 0, No Iterations 0
smoothSolver:  Solving for Ux, Initial residual = 0.000442034, Final residual = 7.44759e-15, No Iterations 2
DILUPBiCG:  Solving for O2, Initial residual = 0.000287639, Final residual = 3.59466e-19, No Iterations 1
DILUPBiCG:  Solving for NO, Initial residual = 0, Final residual = 0, No Iterations 0
DILUPBiCG:  Solving for N, Initial residual = 0, Final residual = 0, No Iterations 0
DILUPBiCG:  Solving for O, Initial residual = 0, Final residual = 0, No Iterations 0
smoothSolver:  Solving for e, Initial residual = 0.000274821, Final residual = 7.23478e-15, No Iterations 2
implement your two-temperature model here
ExecutionTime = 0.171859 s  ClockTime = 1 s

Courant Number mean: 0.0916533 max: 0.177709
Time = 0.00023s

PIMPLE: Iteration 1
diagonal:  Solving for rho, Initial residual = 0, Final residual = 0, No Iterations 0
smoothSolver:  Solving for Ux, Initial residual = 0.0038734, Final residual = 3.84795e-14, No Iterations 2
DILUPBiCG:  Solving for O2, Initial residual = 0.000264465, Final residual = 8.00432e-19, No Iterations 1
DILUPBiCG:  Solving for NO, Initial residual = 0, Final residual = 0, No Iterations 0
DILUPBiCG:  Solving for N, Initial residual = 0, Final residual = 0, No Iterations 0
DILUPBiCG:  Solving for O, Initial residual = 0, Final residual = 0, No Iterations 0
smoothSolver:  Solving for e, Initial residual = 0.000828034, Final residual = 2.55976e-14, No Iterations 2
implement your two-temperature model here
PIMPLE: Iteration 2
diagonal:  Solving for rho, Initial residual = 0, Final residual = 0, No Iterations 0
smoothSolver:  Solving for Ux, Initial residual = 0.000438187, Final residual = 7.46847e-15, No Iterations 2
DILUPBiCG:  Solving for O2, Initial residual = 0.000322251, Final residual = 5.37865e-20, No Iterations 1
DILUPBiCG:  Solving for NO, Initial residual = 0, Final residual = 0, No Iterations 0
DILUPBiCG:  Solving for N, Initial residual = 0, Final residual = 0, No Iterations 0
DILUPBiCG:  Solving for O, Initial residual = 0, Final residual = 0, No Iterations 0
smoothSolver:  Solving for e, Initial residual = 0.000272051, Final residual = 7.25397e-15, No Iterations 2
implement your two-temperature model here
ExecutionTime = 0.174517 s  ClockTime = 1 s

Courant Number mean: 0.0916835 max: 0.177822
Time = 0.000235s

PIMPLE: Iteration 1
diagonal:  Solving for rho, Initial residual = 0, Final residual = 0, No Iterations 0
smoothSolver:  Solving for Ux, Initial residual = 0.00379114, Final residual = 3.78149e-14, No Iterations 2
DILUPBiCG:  Solving for O2, Initial residual = 0.000202698, Final residual = 1.45868e-19, No Iterations 1
DILUPBiCG:  Solving for NO, Initial residual = 0, Final residual = 0, No Iterations 0
DILUPBiCG:  Solving for N, Initial residual = 0, Final residual = 0, No Iterations 0
DILUPBiCG:  Solving for O, Initial residual = 0, Final residual = 0, No Iterations 0
smoothSolver:  Solving for e, Initial residual = 0.000831331, Final residual = 2.58203e-14, No Iterations 2
implement your two-temperature model here
PIMPLE: Iteration 2
diagonal:  Solving for rho, Initial residual = 0, Final residual = 0, No Iterations 0
smoothSolver:  Solving for Ux, Initial residual = 0.000419071, Final residual = 7.19644e-15, No Iterations 2
DILUPBiCG:  Solving for O2, Initial residual = 0.000231602, Final residual = 8.79419e-20, No Iterations 1
DILUPBiCG:  Solving for NO, Initial residual = 0, Final residual = 0, No Iterations 0
DILUPBiCG:  Solving for N, Initial residual = 0, Final residual = 0, No Iterations 0
DILUPBiCG:  Solving for O, Initial residual = 0, Final residual = 0, No Iterations 0
smoothSolver:  Solving for e, Initial residual = 0.000272498, Final residual = 7.47035e-15, No Iterations 2
implement your two-temperature model here
ExecutionTime = 0.176875 s  ClockTime = 1 s

Courant Number mean: 0.0917142 max: 0.177796
Time = 0.00024s

PIMPLE: Iteration 1
diagonal:  Solving for rho, Initial residual = 0, Final residual = 0, No Iterations 0
smoothSolver:  Solving for Ux, Initial residual = 0.00371303, Final residual = 3.71285e-14, No Iterations 2
DILUPBiCG:  Solving for O2, Initial residual = 0.000227401, Final residual = 5.90814e-20, No Iterations 1
DILUPBiCG:  Solving for NO, Initial residual = 0, Final residual = 0, No Iterations 0
DILUPBiCG:  Solving for N, Initial residual = 0, Final residual = 0, No Iterations 0
DILUPBiCG:  Solving for O, Initial residual = 0, Final residual = 0, No Iterations 0
smoothSolver:  Solving for e, Initial residual = 0.000832428, Final residual = 2.58824e-14, No Iterations 2
implement your two-temperature model here
PIMPLE: Iteration 2
diagonal:  Solving for rho, Initial residual = 0, Final residual = 0, No Iterations 0
smoothSolver:  Solving for Ux, Initial residual = 0.00040328, Final residual = 6.9148e-15, No Iterations 2
DILUPBiCG:  Solving for O2, Initial residual = 0.00024718, Final residual = 9.62341e-20, No Iterations 1
DILUPBiCG:  Solving for NO, Initial residual = 0, Final residual = 0, No Iterations 0
DILUPBiCG:  Solving for N, Initial residual = 0, Final residual = 0, No Iterations 0
DILUPBiCG:  Solving for O, Initial residual = 0, Final residual = 0, No Iterations 0
smoothSolver:  Solving for e, Initial residual = 0.000269766, Final residual = 7.31826e-15, No Iterations 2
implement your two-temperature model here
ExecutionTime = 0.179194 s  ClockTime = 1 s

Courant Number mean: 0.0917439 max: 0.177992
Time = 0.000245s

PIMPLE: Iteration 1
diagonal:  Solving for rho, Initial residual = 0, Final residual = 0, No Iterations 0
smoothSolver:  Solving for Ux, Initial residual = 0.00363528, Final residual = 3.63268e-14, No Iterations 2
DILUPBiCG:  Solving for O2, Initial residual = 0.00031387, Final residual = 8.01651e-20, No Iterations 1
DILUPBiCG:  Solving for NO, Initial residual = 0, Final residual = 0, No Iterations 0
DILUPBiCG:  Solving for N, Initial residual = 0, Final residual = 0, No Iterations 0
DILUPBiCG:  Solving for O, Initial residual = 0, Final residual = 0, No Iterations 0
smoothSolver:  Solving for e, Initial residual = 0.000834147, Final residual = 2.59287e-14, No Iterations 2
implement your two-temperature model here
PIMPLE: Iteration 2
diagonal:  Solving for rho, Initial residual = 0, Final residual = 0, No Iterations 0
smoothSolver:  Solving for Ux, Initial residual = 0.000409872, Final residual = 7.12184e-15, No Iterations 2
DILUPBiCG:  Solving for O2, Initial residual = 0.000238142, Final residual = 5.81062e-20, No Iterations 1
DILUPBiCG:  Solving for NO, Initial residual = 0, Final residual = 0, No Iterations 0
DILUPBiCG:  Solving for N, Initial residual = 0, Final residual = 0, No Iterations 0
DILUPBiCG:  Solving for O, Initial residual = 0, Final residual = 0, No Iterations 0
smoothSolver:  Solving for e, Initial residual = 0.000266073, Final residual = 7.14325e-15, No Iterations 2
implement your two-temperature model here
ExecutionTime = 0.181409 s  ClockTime = 1 s

Courant Number mean: 0.0917734 max: 0.178349
Time = 0.00025s

PIMPLE: Iteration 1
diagonal:  Solving for rho, Initial residual = 0, Final residual = 0, No Iterations 0
smoothSolver:  Solving for Ux, Initial residual = 0.00356179, Final residual = 3.56613e-14, No Iterations 2
DILUPBiCG:  Solving for O2, Initial residual = 0.000289888, Final residual = 1.89579e-19, No Iterations 1
DILUPBiCG:  Solving for NO, Initial residual = 0, Final residual = 0, No Iterations 0
DILUPBiCG:  Solving for N, Initial residual = 0, Final residual = 0, No Iterations 0
DILUPBiCG:  Solving for O, Initial residual = 0, Final residual = 0, No Iterations 0
smoothSolver:  Solving for e, Initial residual = 0.000839403, Final residual = 2.62375e-14, No Iterations 2
implement your two-temperature model here
PIMPLE: Iteration 2
diagonal:  Solving for rho, Initial residual = 0, Final residual = 0, No Iterations 0
smoothSolver:  Solving for Ux, Initial residual = 0.000399299, Final residual = 6.97016e-15, No Iterations 2
DILUPBiCG:  Solving for O2, Initial residual = 0.000343501, Final residual = 3.48805e-19, No Iterations 1
[...]
DILUPBiCG:  Solving for O2, Initial residual = 0.00404272, Final residual = 9.63162e-19, No Iterations 1
DILUPBiCG:  Solving for NO, Initial residual = 0, Final residual = 0, No Iterations 0
DILUPBiCG:  Solving for N, Initial residual = 0, Final residual = 0, No Iterations 0
DILUPBiCG:  Solving for O, Initial residual = 0, Final residual = 0, No Iterations 0
smoothSolver:  Solving for e, Initial residual = 0.000800441, Final residual = 2.65535e-14, No Iterations 2
implement your two-temperature model here
PIMPLE: Iteration 2
diagonal:  Solving for rho, Initial residual = 0, Final residual = 0, No Iterations 0
smoothSolver:  Solving for Ux, Initial residual = 3.90433e-05, Final residual = 8.38202e-16, No Iterations 2
DILUPBiCG:  Solving for O2, Initial residual = 0.00436396, Final residual = 5.9783e-19, No Iterations 1
DILUPBiCG:  Solving for NO, Initial residual = 0, Final residual = 0, No Iterations 0
DILUPBiCG:  Solving for N, Initial residual = 0, Final residual = 0, No Iterations 0
DILUPBiCG:  Solving for O, Initial residual = 0, Final residual = 0, No Iterations 0
smoothSolver:  Solving for e, Initial residual = 0.000253507, Final residual = 8.30861e-15, No Iterations 2
implement your two-temperature model here
ExecutionTime = 3.49763 s  ClockTime = 4 s

Courant Number mean: 0.132018 max: 0.180855
Time = 0.006945s

PIMPLE: Iteration 1
diagonal:  Solving for rho, Initial residual = 0, Final residual = 0, No Iterations 0
smoothSolver:  Solving for Ux, Initial residual = 0.000255908, Final residual = 2.60187e-15, No Iterations 2
DILUPBiCG:  Solving for O2, Initial residual = 0.00425179, Final residual = 6.07685e-19, No Iterations 1
DILUPBiCG:  Solving for NO, Initial residual = 0, Final residual = 0, No Iterations 0
DILUPBiCG:  Solving for N, Initial residual = 0, Final residual = 0, No Iterations 0
DILUPBiCG:  Solving for O, Initial residual = 0, Final residual = 0, No Iterations 0
smoothSolver:  Solving for e, Initial residual = 0.000800271, Final residual = 2.66487e-14, No Iterations 2
implement your two-temperature model here
PIMPLE: Iteration 2
diagonal:  Solving for rho, Initial residual = 0, Final residual = 0, No Iterations 0
smoothSolver:  Solving for Ux, Initial residual = 3.79935e-05, Final residual = 8.04178e-16, No Iterations 2
DILUPBiCG:  Solving for O2, Initial residual = 0.00454556, Final residual = 5.8969e-18, No Iterations 1
DILUPBiCG:  Solving for NO, Initial residual = 0, Final residual = 0, No Iterations 0
DILUPBiCG:  Solving for N, Initial residual = 0, Final residual = 0, No Iterations 0
DILUPBiCG:  Solving for O, Initial residual = 0, Final residual = 0, No Iterations 0
smoothSolver:  Solving for e, Initial residual = 0.000254528, Final residual = 8.30784e-15, No Iterations 2
implement your two-temperature model here
ExecutionTime = 3.50001 s  ClockTime = 4 s

Courant Number mean: 0.132049 max: 0.180855
Time = 0.00695s

PIMPLE: Iteration 1
diagonal:  Solving for rho, Initial residual = 0, Final residual = 0, No Iterations 0
smoothSolver:  Solving for Ux, Initial residual = 0.000256271, Final residual = 2.62278e-15, No Iterations 2
DILUPBiCG:  Solving for O2, Initial residual = 0.00397376, Final residual = 5.76209e-19, No Iterations 1
DILUPBiCG:  Solving for NO, Initial residual = 0, Final residual = 0, No Iterations 0
DILUPBiCG:  Solving for N, Initial residual = 0, Final residual = 0, No Iterations 0
DILUPBiCG:  Solving for O, Initial residual = 0, Final residual = 0, No Iterations 0
smoothSolver:  Solving for e, Initial residual = 0.000801936, Final residual = 2.68711e-14, No Iterations 2
implement your two-temperature model here
PIMPLE: Iteration 2
diagonal:  Solving for rho, Initial residual = 0, Final residual = 0, No Iterations 0
smoothSolver:  Solving for Ux, Initial residual = 3.5489e-05, Final residual = 7.46258e-16, No Iterations 2
DILUPBiCG:  Solving for O2, Initial residual = 0.00430875, Final residual = 2.71674e-18, No Iterations 1
DILUPBiCG:  Solving for NO, Initial residual = 0, Final residual = 0, No Iterations 0
DILUPBiCG:  Solving for N, Initial residual = 0, Final residual = 0, No Iterations 0
DILUPBiCG:  Solving for O, Initial residual = 0, Final residual = 0, No Iterations 0
smoothSolver:  Solving for e, Initial residual = 0.000251306, Final residual = 7.95162e-15, No Iterations 2
implement your two-temperature model here
ExecutionTime = 3.50238 s  ClockTime = 4 s

Courant Number mean: 0.132079 max: 0.180855
Time = 0.006955s

PIMPLE: Iteration 1
diagonal:  Solving for rho, Initial residual = 0, Final residual = 0, No Iterations 0
smoothSolver:  Solving for Ux, Initial residual = 0.00025649, Final residual = 2.62515e-15, No Iterations 2
DILUPBiCG:  Solving for O2, Initial residual = 0.00391487, Final residual = 9.3666e-19, No Iterations 1
DILUPBiCG:  Solving for NO, Initial residual = 0, Final residual = 0, No Iterations 0
DILUPBiCG:  Solving for N, Initial residual = 0, Final residual = 0, No Iterations 0
DILUPBiCG:  Solving for O, Initial residual = 0, Final residual = 0, No Iterations 0
smoothSolver:  Solving for e, Initial residual = 0.000802788, Final residual = 2.69136e-14, No Iterations 2
implement your two-temperature model here
PIMPLE: Iteration 2
diagonal:  Solving for rho, Initial residual = 0, Final residual = 0, No Iterations 0
smoothSolver:  Solving for Ux, Initial residual = 3.23284e-05, Final residual = 6.8196e-16, No Iterations 2
DILUPBiCG:  Solving for O2, Initial residual = 0.00410095, Final residual = 1.41663e-18, No Iterations 1
DILUPBiCG:  Solving for NO, Initial residual = 0, Final residual = 0, No Iterations 0
DILUPBiCG:  Solving for N, Initial residual = 0, Final residual = 0, No Iterations 0
DILUPBiCG:  Solving for O, Initial residual = 0, Final residual = 0, No Iterations 0
smoothSolver:  Solving for e, Initial residual = 0.000246325, Final residual = 7.54578e-15, No Iterations 2
implement your two-temperature model here
ExecutionTime = 3.50481 s  ClockTime = 4 s

Courant Number mean: 0.132108 max: 0.180855
Time = 0.00696s

PIMPLE: Iteration 1
diagonal:  Solving for rho, Initial residual = 0, Final residual = 0, No Iterations 0
smoothSolver:  Solving for Ux, Initial residual = 0.000256365, Final residual = 2.61733e-15, No Iterations 2
DILUPBiCG:  Solving for O2, Initial residual = 0.00396739, Final residual = 3.87961e-19, No Iterations 1
DILUPBiCG:  Solving for NO, Initial residual = 0, Final residual = 0, No Iterations 0
DILUPBiCG:  Solving for N, Initial residual = 0, Final residual = 0, No Iterations 0
DILUPBiCG:  Solving for O, Initial residual = 0, Final residual = 0, No Iterations 0
smoothSolver:  Solving for e, Initial residual = 0.000801999, Final residual = 2.67983e-14, No Iterations 2
implement your two-temperature model here
PIMPLE: Iteration 2
diagonal:  Solving for rho, Initial residual = 0, Final residual = 0, No Iterations 0
smoothSolver:  Solving for Ux, Initial residual = 2.93939e-05, Final residual = 6.38306e-16, No Iterations 2
DILUPBiCG:  Solving for O2, Initial residual = 0.00434338, Final residual = 1.0197e-18, No Iterations 1
DILUPBiCG:  Solving for NO, Initial residual = 0, Final residual = 0, No Iterations 0
DILUPBiCG:  Solving for N, Initial residual = 0, Final residual = 0, No Iterations 0
DILUPBiCG:  Solving for O, Initial residual = 0, Final residual = 0, No Iterations 0
smoothSolver:  Solving for e, Initial residual = 0.000242698, Final residual = 7.38806e-15, No Iterations 2
implement your two-temperature model here
ExecutionTime = 3.50717 s  ClockTime = 4 s

Courant Number mean: 0.132139 max: 0.180855
Time = 0.006965s

PIMPLE: Iteration 1
diagonal:  Solving for rho, Initial residual = 0, Final residual = 0, No Iterations 0
smoothSolver:  Solving for Ux, Initial residual = 0.000256191, Final residual = 2.60795e-15, No Iterations 2
DILUPBiCG:  Solving for O2, Initial residual = 0.00406755, Final residual = 9.41646e-19, No Iterations 1
DILUPBiCG:  Solving for NO, Initial residual = 0, Final residual = 0, No Iterations 0
DILUPBiCG:  Solving for N, Initial residual = 0, Final residual = 0, No Iterations 0
DILUPBiCG:  Solving for O, Initial residual = 0, Final residual = 0, No Iterations 0
smoothSolver:  Solving for e, Initial residual = 0.000801121, Final residual = 2.67112e-14, No Iterations 2
implement your two-temperature model here
PIMPLE: Iteration 2
diagonal:  Solving for rho, Initial residual = 0, Final residual = 0, No Iterations 0
smoothSolver:  Solving for Ux, Initial residual = 3.47005e-05, Final residual = 7.65705e-16, No Iterations 2
DILUPBiCG:  Solving for O2, Initial residual = 0.00409442, Final residual = 8.25157e-19, No Iterations 1
DILUPBiCG:  Solving for NO, Initial residual = 0, Final residual = 0, No Iterations 0
DILUPBiCG:  Solving for N, Initial residual = 0, Final residual = 0, No Iterations 0
DILUPBiCG:  Solving for O, Initial residual = 0, Final residual = 0, No Iterations 0
smoothSolver:  Solving for e, Initial residual = 0.000239792, Final residual = 7.26406e-15, No Iterations 2
implement your two-temperature model here
ExecutionTime = 3.5095 s  ClockTime = 4 s

Courant Number mean: 0.13217 max: 0.180855
Time = 0.00697s

PIMPLE: Iteration 1
diagonal:  Solving for rho, Initial residual = 0, Final residual = 0, No Iterations 0
smoothSolver:  Solving for Ux, Initial residual = 0.000255967, Final residual = 2.60293e-15, No Iterations 2
DILUPBiCG:  Solving for O2, Initial residual = 0.00420429, Final residual = 2.39923e-18, No Iterations 1
DILUPBiCG:  Solving for NO, Initial residual = 0, Final residual = 0, No Iterations 0
DILUPBiCG:  Solving for N, Initial residual = 0, Final residual = 0, No Iterations 0
DILUPBiCG:  Solving for O, Initial residual = 0, Final residual = 0, No Iterations 0
smoothSolver:  Solving for e, Initial residual = 0.000800091, Final residual = 2.66015e-14, No Iterations 2
implement your two-temperature model here
PIMPLE: Iteration 2
diagonal:  Solving for rho, Initial residual = 0, Final residual = 0, No Iterations 0
smoothSolver:  Solving for Ux, Initial residual = 3.82223e-05, Final residual = 8.32505e-16, No Iterations 2
DILUPBiCG:  Solving for O2, Initial residual = 0.00430499, Final residual = 3.69757e-19, No Iterations 1
DILUPBiCG:  Solving for NO, Initial residual = 0, Final residual = 0, No Iterations 0
DILUPBiCG:  Solving for N, Initial residual = 0, Final residual = 0, No Iterations 0
DILUPBiCG:  Solving for O, Initial residual = 0, Final residual = 0, No Iterations 0
smoothSolver:  Solving for e, Initial residual = 0.000247926, Final residual = 7.95056e-15, No Iterations 2
implement your two-temperature model here
ExecutionTime = 3.51187 s  ClockTime = 4 s

Courant Number mean: 0.132199 max: 0.180855
Time = 0.006975s

PIMPLE: Iteration 1
diagonal:  Solving for rho, Initial residual = 0, Final residual = 0, No Iterations 0
smoothSolver:  Solving for Ux, Initial residual = 0.000255655, Final residual = 2.59366e-15, No Iterations 2
DILUPBiCG:  Solving for O2, Initial residual = 0.00399191, Final residual = 9.79208e-19, No Iterations 1
DILUPBiCG:  Solving for NO, Initial residual = 0, Final residual = 0, No Iterations 0
DILUPBiCG:  Solving for N, Initial residual = 0, Final residual = 0, No Iterations 0
DILUPBiCG:  Solving for O, Initial residual = 0, Final residual = 0, No Iterations 0
smoothSolver:  Solving for e, Initial residual = 0.000798586, Final residual = 2.64975e-14, No Iterations 2
implement your two-temperature model here
PIMPLE: Iteration 2
diagonal:  Solving for rho, Initial residual = 0, Final residual = 0, No Iterations 0
smoothSolver:  Solving for Ux, Initial residual = 3.89811e-05, Final residual = 8.36437e-16, No Iterations 2
DILUPBiCG:  Solving for O2, Initial residual = 0.00427268, Final residual = 1.47289e-18, No Iterations 1
DILUPBiCG:  Solving for NO, Initial residual = 0, Final residual = 0, No Iterations 0
DILUPBiCG:  Solving for N, Initial residual = 0, Final residual = 0, No Iterations 0
DILUPBiCG:  Solving for O, Initial residual = 0, Final residual = 0, No Iterations 0
smoothSolver:  Solving for e, Initial residual = 0.000253192, Final residual = 8.30222e-15, No Iterations 2
implement your two-temperature model here
ExecutionTime = 3.51425 s  ClockTime = 4 s

Courant Number mean: 0.132229 max: 0.180855
Time = 0.00698s

PIMPLE: Iteration 1
diagonal:  Solving for rho, Initial residual = 0, Final residual = 0, No Iterations 0
smoothSolver:  Solving for Ux, Initial residual = 0.000255663, Final residual = 2.60255e-15, No Iterations 2
DILUPBiCG:  Solving for O2, Initial residual = 0.00414654, Final residual = 1.65591e-18, No Iterations 1
DILUPBiCG:  Solving for NO, Initial residual = 0, Final residual = 0, No Iterations 0
DILUPBiCG:  Solving for N, Initial residual = 0, Final residual = 0, No Iterations 0
DILUPBiCG:  Solving for O, Initial residual = 0, Final residual = 0, No Iterations 0
smoothSolver:  Solving for e, Initial residual = 0.000798603, Final residual = 2.66033e-14, No Iterations 2
implement your two-temperature model here
PIMPLE: Iteration 2
diagonal:  Solving for rho, Initial residual = 0, Final residual = 0, No Iterations 0
smoothSolver:  Solving for Ux, Initial residual = 3.7801e-05, Final residual = 8.01437e-16, No Iterations 2
DILUPBiCG:  Solving for O2, Initial residual = 0.00437371, Final residual = 2.80427e-18, No Iterations 1
DILUPBiCG:  Solving for NO, Initial residual = 0, Final residual = 0, No Iterations 0
DILUPBiCG:  Solving for N, Initial residual = 0, Final residual = 0, No Iterations 0
DILUPBiCG:  Solving for O, Initial residual = 0, Final residual = 0, No Iterations 0
smoothSolver:  Solving for e, Initial residual = 0.000253843, Final residual = 8.26891e-15, No Iterations 2
implement your two-temperature model here
ExecutionTime = 3.51661 s  ClockTime = 4 s

Courant Number mean: 0.132259 max: 0.180855
Time = 0.006985s

PIMPLE: Iteration 1
diagonal:  Solving for rho, Initial residual = 0, Final residual = 0, No Iterations 0
smoothSolver:  Solving for Ux, Initial residual = 0.000256038, Final residual = 2.62162e-15, No Iterations 2
DILUPBiCG:  Solving for O2, Initial residual = 0.00411123, Final residual = 9.44591e-19, No Iterations 1
DILUPBiCG:  Solving for NO, Initial residual = 0, Final residual = 0, No Iterations 0
DILUPBiCG:  Solving for N, Initial residual = 0, Final residual = 0, No Iterations 0
DILUPBiCG:  Solving for O, Initial residual = 0, Final residual = 0, No Iterations 0
smoothSolver:  Solving for e, Initial residual = 0.000800309, Final residual = 2.68294e-14, No Iterations 2
implement your two-temperature model here
PIMPLE: Iteration 2
diagonal:  Solving for rho, Initial residual = 0, Final residual = 0, No Iterations 0
smoothSolver:  Solving for Ux, Initial residual = 3.5211e-05, Final residual = 7.39637e-16, No Iterations 2
DILUPBiCG:  Solving for O2, Initial residual = 0.00450036, Final residual = 1.57343e-18, No Iterations 1
DILUPBiCG:  Solving for NO, Initial residual = 0, Final residual = 0, No Iterations 0
DILUPBiCG:  Solving for N, Initial residual = 0, Final residual = 0, No Iterations 0
DILUPBiCG:  Solving for O, Initial residual = 0, Final residual = 0, No Iterations 0
smoothSolver:  Solving for e, Initial residual = 0.000250367, Final residual = 7.9017e-15, No Iterations 2
implement your two-temperature model here
ExecutionTime = 3.51892 s  ClockTime = 4 s

Courant Number mean: 0.132289 max: 0.180855
Time = 0.00699s

PIMPLE: Iteration 1
diagonal:  Solving for rho, Initial residual = 0, Final residual = 0, No Iterations 0
smoothSolver:  Solving for Ux, Initial residual = 0.000256227, Final residual = 2.62361e-15, No Iterations 2
DILUPBiCG:  Solving for O2, Initial residual = 0.00413488, Final residual = 3.7537e-19, No Iterations 1
DILUPBiCG:  Solving for NO, Initial residual = 0, Final residual = 0, No Iterations 0
DILUPBiCG:  Solving for N, Initial residual = 0, Final residual = 0, No Iterations 0
DILUPBiCG:  Solving for O, Initial residual = 0, Final residual = 0, No Iterations 0
smoothSolver:  Solving for e, Initial residual = 0.000801008, Final residual = 2.68502e-14, No Iterations 2
implement your two-temperature model here
PIMPLE: Iteration 2
diagonal:  Solving for rho, Initial residual = 0, Final residual = 0, No Iterations 0
smoothSolver:  Solving for Ux, Initial residual = 3.20467e-05, Final residual = 6.78441e-16, No Iterations 2
DILUPBiCG:  Solving for O2, Initial residual = 0.00433597, Final residual = 5.35542e-18, No Iterations 1
DILUPBiCG:  Solving for NO, Initial residual = 0, Final residual = 0, No Iterations 0
DILUPBiCG:  Solving for N, Initial residual = 0, Final residual = 0, No Iterations 0
DILUPBiCG:  Solving for O, Initial residual = 0, Final residual = 0, No Iterations 0
smoothSolver:  Solving for e, Initial residual = 0.000245413, Final residual = 7.51072e-15, No Iterations 2
implement your two-temperature model here
ExecutionTime = 3.52134 s  ClockTime = 4 s

Courant Number mean: 0.132319 max: 0.180855
Time = 0.006995s

PIMPLE: Iteration 1
diagonal:  Solving for rho, Initial residual = 0, Final residual = 0, No Iterations 0
smoothSolver:  Solving for Ux, Initial residual = 0.00025609, Final residual = 2.61278e-15, No Iterations 2
DILUPBiCG:  Solving for O2, Initial residual = 0.00409012, Final residual = 1.44678e-18, No Iterations 1
DILUPBiCG:  Solving for NO, Initial residual = 0, Final residual = 0, No Iterations 0
DILUPBiCG:  Solving for N, Initial residual = 0, Final residual = 0, No Iterations 0
DILUPBiCG:  Solving for O, Initial residual = 0, Final residual = 0, No Iterations 0
smoothSolver:  Solving for e, Initial residual = 0.000800146, Final residual = 2.6732e-14, No Iterations 2
implement your two-temperature model here
PIMPLE: Iteration 2
diagonal:  Solving for rho, Initial residual = 0, Final residual = 0, No Iterations 0
smoothSolver:  Solving for Ux, Initial residual = 2.93741e-05, Final residual = 6.41675e-16, No Iterations 2
DILUPBiCG:  Solving for O2, Initial residual = 0.00419048, Final residual = 2.38979e-18, No Iterations 1
DILUPBiCG:  Solving for NO, Initial residual = 0, Final residual = 0, No Iterations 0
DILUPBiCG:  Solving for N, Initial residual = 0, Final residual = 0, No Iterations 0
DILUPBiCG:  Solving for O, Initial residual = 0, Final residual = 0, No Iterations 0
smoothSolver:  Solving for e, Initial residual = 0.000241929, Final residual = 7.35647e-15, No Iterations 2
implement your two-temperature model here
ExecutionTime = 3.52369 s  ClockTime = 4 s

Courant Number mean: 0.132349 max: 0.180855
Time = 0.007s

PIMPLE: Iteration 1
diagonal:  Solving for rho, Initial residual = 0, Final residual = 0, No Iterations 0
smoothSolver:  Solving for Ux, Initial residual = 0.00025592, Final residual = 2.60455e-15, No Iterations 2
DILUPBiCG:  Solving for O2, Initial residual = 0.00408583, Final residual = 5.93597e-19, No Iterations 1
DILUPBiCG:  Solving for NO, Initial residual = 0, Final residual = 0, No Iterations 0
DILUPBiCG:  Solving for N, Initial residual = 0, Final residual = 0, No Iterations 0
DILUPBiCG:  Solving for O, Initial residual = 0, Final residual = 0, No Iterations 0
smoothSolver:  Solving for e, Initial residual = 0.000799284, Final residual = 2.66533e-14, No Iterations 2
implement your two-temperature model here
PIMPLE: Iteration 2
diagonal:  Solving for rho, Initial residual = 0, Final residual = 0, No Iterations 0
smoothSolver:  Solving for Ux, Initial residual = 3.50485e-05, Final residual = 7.75408e-16, No Iterations 2
DILUPBiCG:  Solving for O2, Initial residual = 0.00430642, Final residual = 8.36801e-19, No Iterations 1
DILUPBiCG:  Solving for NO, Initial residual = 0, Final residual = 0, No Iterations 0
DILUPBiCG:  Solving for N, Initial residual = 0, Final residual = 0, No Iterations 0
DILUPBiCG:  Solving for O, Initial residual = 0, Final residual = 0, No Iterations 0
smoothSolver:  Solving for e, Initial residual = 0.000238965, Final residual = 7.23128e-15, No Iterations 2
implement your two-temperature model here
ExecutionTime = 3.5278 s  ClockTime = 4 s

End

