/*---------------------------------------------------------------------------*\
  =========                 |
  \\      /  F ield         | OpenFOAM: The Open Source CFD Toolbox
   \\    /   O peration     | Website:  https://openfoam.org
    \\  /    A nd           | Version:  13
     \\/     M anipulation  |
\*---------------------------------------------------------------------------*/
Build  : 13-5599db86c70d
Exec   : foamRun
Date   : Dec 03 2025
Time   : 00:11:16
Host   : "392e785f2187"
PID    : 10364
I/O    : uncollated
Case   : /home/student/OpenFOAM/student-13/run/aeroHPC/OpenFOAM/tutorials/shockThermo/shockTube
nProcs : 1
sigFpe : Enabling floating point exception trapping (FOAM_SIGFPE).
fileModificationChecking : Monitoring run-time modified files using timeStampMaster (fileModificationSkew 10)
allowSystemOperations : Allowing user-supplied system call operations

// * * * * * * * * * * * * * * * * * * * * * * * * * * * * * * * * * * * * * //
Create time

Duplicate entry mixedFixedValueSlip in runtime selection table fvPatchField
#0	/home/student/OpenFOAM/OpenFOAM-13/platforms/linux64GccDPInt32Opt/lib/libOpenFOAM.so(_ZN4Foam5error14safePrintStackERSo+0x42) [0x7e77f4e1dbd2]
#1	/home/student/OpenFOAM/OpenFOAM-13/platforms/linux64GccDPInt32Opt/lib/libshockFluidThermo.so(+0x56411) [0x7e77ed40d411]
#2	/lib64/ld-linux-x86-64.so.2(+0x571f) [0x7e77f706171f]
#3	/lib64/ld-linux-x86-64.so.2(+0x5824) [0x7e77f7061824]
#4	/lib64/ld-linux-x86-64.so.2(_dl_catch_exception+0x132) [0x7e77f705d5b2]
#5	/lib64/ld-linux-x86-64.so.2(+0xcd7c) [0x7e77f7068d7c]
#6	/lib64/ld-linux-x86-64.so.2(_dl_catch_exception+0x9c) [0x7e77f705d51c]
#7	/lib64/ld-linux-x86-64.so.2(+0xd164) [0x7e77f7069164]
#8	/lib/x86_64-linux-gnu/libc.so.6(+0x981a4) [0x7e77f3f771a4]
#9	/lib64/ld-linux-x86-64.so.2(_dl_catch_exception+0x9c) [0x7e77f705d51c]
#10	/lib64/ld-linux-x86-64.so.2(+0x1669) [0x7e77f705d669]
#11	/lib/x86_64-linux-gnu/libc.so.6(+0x97c83) [0x7e77f3f76c83]
#12	/lib/x86_64-linux-gnu/libc.so.6(dlopen+0x6f) [0x7e77f3f7725f]
#13	/home/student/OpenFOAM/OpenFOAM-13/platforms/linux64GccDPInt32Opt/lib/libOpenFOAM.so(_ZN4Foam6dlOpenERKNS_8fileNameEb+0x33) [0x7e77f4e169d3]
#14	/home/student/OpenFOAM/OpenFOAM-13/platforms/linux64GccDPInt32Opt/lib/libOpenFOAM.so(_ZN4Foam14dlLibraryTable4openERKNS_8fileNameEb+0x12d) [0x7e77f4a2471d]
#15	/home/student/OpenFOAM/OpenFOAM-13/platforms/linux64GccDPInt32Opt/lib/libfiniteVolume.so(_ZN4Foam6solver4loadERKNS_4wordE+0x18b) [0x7e77f693cd0b]
#16	foamRun(+0x3b6e) [0x614cd76e2b6e]
#17	/lib/x86_64-linux-gnu/libc.so.6(+0x2a1ca) [0x7e77f3f091ca]
#18	/lib/x86_64-linux-gnu/libc.so.6(__libc_start_main+0x8b) [0x7e77f3f0928b]
#19	foamRun(+0x46b5) [0x614cd76e36b5]
Duplicate entry mixedFixedValueSlip in runtime selection table fvPatchField
#0	/home/student/OpenFOAM/OpenFOAM-13/platforms/linux64GccDPInt32Opt/lib/libOpenFOAM.so(_ZN4Foam5error14safePrintStackERSo+0x42) [0x7e77f4e1dbd2]
#1	/home/student/OpenFOAM/OpenFOAM-13/platforms/linux64GccDPInt32Opt/lib/libshockFluidThermo.so(+0x5645a) [0x7e77ed40d45a]
#2	/lib64/ld-linux-x86-64.so.2(+0x571f) [0x7e77f706171f]
#3	/lib64/ld-linux-x86-64.so.2(+0x5824) [0x7e77f7061824]
#4	/lib64/ld-linux-x86-64.so.2(_dl_catch_exception+0x132) [0x7e77f705d5b2]
#5	/lib64/ld-linux-x86-64.so.2(+0xcd7c) [0x7e77f7068d7c]
#6	/lib64/ld-linux-x86-64.so.2(_dl_catch_exception+0x9c) [0x7e77f705d51c]
#7	/lib64/ld-linux-x86-64.so.2(+0xd164) [0x7e77f7069164]
#8	/lib/x86_64-linux-gnu/libc.so.6(+0x981a4) [0x7e77f3f771a4]
#9	/lib64/ld-linux-x86-64.so.2(_dl_catch_exception+0x9c) [0x7e77f705d51c]
#10	/lib64/ld-linux-x86-64.so.2(+0x1669) [0x7e77f705d669]
#11	/lib/x86_64-linux-gnu/libc.so.6(+0x97c83) [0x7e77f3f76c83]
#12	/lib/x86_64-linux-gnu/libc.so.6(dlopen+0x6f) [0x7e77f3f7725f]
#13	/home/student/OpenFOAM/OpenFOAM-13/platforms/linux64GccDPInt32Opt/lib/libOpenFOAM.so(_ZN4Foam6dlOpenERKNS_8fileNameEb+0x33) [0x7e77f4e169d3]
#14	/home/student/OpenFOAM/OpenFOAM-13/platforms/linux64GccDPInt32Opt/lib/libOpenFOAM.so(_ZN4Foam14dlLibraryTable4openERKNS_8fileNameEb+0x12d) [0x7e77f4a2471d]
#15	/home/student/OpenFOAM/OpenFOAM-13/platforms/linux64GccDPInt32Opt/lib/libfiniteVolume.so(_ZN4Foam6solver4loadERKNS_4wordE+0x18b) [0x7e77f693cd0b]
#16	foamRun(+0x3b6e) [0x614cd76e2b6e]
#17	/lib/x86_64-linux-gnu/libc.so.6(+0x2a1ca) [0x7e77f3f091ca]
#18	/lib/x86_64-linux-gnu/libc.so.6(__libc_start_main+0x8b) [0x7e77f3f0928b]
#19	foamRun(+0x46b5) [0x614cd76e36b5]
Duplicate entry mixedFixedValueSlip in runtime selection table fvPatchField
#0	/home/student/OpenFOAM/OpenFOAM-13/platforms/linux64GccDPInt32Opt/lib/libOpenFOAM.so(_ZN4Foam5error14safePrintStackERSo+0x42) [0x7e77f4e1dbd2]
#1	/home/student/OpenFOAM/OpenFOAM-13/platforms/linux64GccDPInt32Opt/lib/libshockFluidThermo.so(+0x564d3) [0x7e77ed40d4d3]
#2	/lib64/ld-linux-x86-64.so.2(+0x571f) [0x7e77f706171f]
#3	/lib64/ld-linux-x86-64.so.2(+0x5824) [0x7e77f7061824]
#4	/lib64/ld-linux-x86-64.so.2(_dl_catch_exception+0x132) [0x7e77f705d5b2]
#5	/lib64/ld-linux-x86-64.so.2(+0xcd7c) [0x7e77f7068d7c]
#6	/lib64/ld-linux-x86-64.so.2(_dl_catch_exception+0x9c) [0x7e77f705d51c]
#7	/lib64/ld-linux-x86-64.so.2(+0xd164) [0x7e77f7069164]
#8	/lib/x86_64-linux-gnu/libc.so.6(+0x981a4) [0x7e77f3f771a4]
#9	/lib64/ld-linux-x86-64.so.2(_dl_catch_exception+0x9c) [0x7e77f705d51c]
#10	/lib64/ld-linux-x86-64.so.2(+0x1669) [0x7e77f705d669]
#11	/lib/x86_64-linux-gnu/libc.so.6(+0x97c83) [0x7e77f3f76c83]
#12	/lib/x86_64-linux-gnu/libc.so.6(dlopen+0x6f) [0x7e77f3f7725f]
#13	/home/student/OpenFOAM/OpenFOAM-13/platforms/linux64GccDPInt32Opt/lib/libOpenFOAM.so(_ZN4Foam6dlOpenERKNS_8fileNameEb+0x33) [0x7e77f4e169d3]
#14	/home/student/OpenFOAM/OpenFOAM-13/platforms/linux64GccDPInt32Opt/lib/libOpenFOAM.so(_ZN4Foam14dlLibraryTable4openERKNS_8fileNameEb+0x12d) [0x7e77f4a2471d]
#15	/home/student/OpenFOAM/OpenFOAM-13/platforms/linux64GccDPInt32Opt/lib/libfiniteVolume.so(_ZN4Foam6solver4loadERKNS_4wordE+0x18b) [0x7e77f693cd0b]
#16	foamRun(+0x3b6e) [0x614cd76e2b6e]
#17	/lib/x86_64-linux-gnu/libc.so.6(+0x2a1ca) [0x7e77f3f091ca]
#18	/lib/x86_64-linux-gnu/libc.so.6(__libc_start_main+0x8b) [0x7e77f3f0928b]
#19	foamRun(+0x46b5) [0x614cd76e36b5]
Duplicate entry mixedFixedValueSlip in runtime selection table fvPatchField
#0	/home/student/OpenFOAM/OpenFOAM-13/platforms/linux64GccDPInt32Opt/lib/libOpenFOAM.so(_ZN4Foam5error14safePrintStackERSo+0x42) [0x7e77f4e1dbd2]
#1	/home/student/OpenFOAM/OpenFOAM-13/platforms/linux64GccDPInt32Opt/lib/libshockFluidThermo.so(+0x56519) [0x7e77ed40d519]
#2	/lib64/ld-linux-x86-64.so.2(+0x571f) [0x7e77f706171f]
#3	/lib64/ld-linux-x86-64.so.2(+0x5824) [0x7e77f7061824]
#4	/lib64/ld-linux-x86-64.so.2(_dl_catch_exception+0x132) [0x7e77f705d5b2]
#5	/lib64/ld-linux-x86-64.so.2(+0xcd7c) [0x7e77f7068d7c]
#6	/lib64/ld-linux-x86-64.so.2(_dl_catch_exception+0x9c) [0x7e77f705d51c]
#7	/lib64/ld-linux-x86-64.so.2(+0xd164) [0x7e77f7069164]
#8	/lib/x86_64-linux-gnu/libc.so.6(+0x981a4) [0x7e77f3f771a4]
#9	/lib64/ld-linux-x86-64.so.2(_dl_catch_exception+0x9c) [0x7e77f705d51c]
#10	/lib64/ld-linux-x86-64.so.2(+0x1669) [0x7e77f705d669]
#11	/lib/x86_64-linux-gnu/libc.so.6(+0x97c83) [0x7e77f3f76c83]
#12	/lib/x86_64-linux-gnu/libc.so.6(dlopen+0x6f) [0x7e77f3f7725f]
#13	/home/student/OpenFOAM/OpenFOAM-13/platforms/linux64GccDPInt32Opt/lib/libOpenFOAM.so(_ZN4Foam6dlOpenERKNS_8fileNameEb+0x33) [0x7e77f4e169d3]
#14	/home/student/OpenFOAM/OpenFOAM-13/platforms/linux64GccDPInt32Opt/lib/libOpenFOAM.so(_ZN4Foam14dlLibraryTable4openERKNS_8fileNameEb+0x12d) [0x7e77f4a2471d]
#15	/home/student/OpenFOAM/OpenFOAM-13/platforms/linux64GccDPInt32Opt/lib/libfiniteVolume.so(_ZN4Foam6solver4loadERKNS_4wordE+0x18b) [0x7e77f693cd0b]
#16	foamRun(+0x3b6e) [0x614cd76e2b6e]
#17	/lib/x86_64-linux-gnu/libc.so.6(+0x2a1ca) [0x7e77f3f091ca]
#18	/lib/x86_64-linux-gnu/libc.so.6(__libc_start_main+0x8b) [0x7e77f3f0928b]
#19	foamRun(+0x46b5) [0x614cd76e36b5]
Duplicate entry mixedFixedValueSlip in runtime selection table fvPatchField
#0	/home/student/OpenFOAM/OpenFOAM-13/platforms/linux64GccDPInt32Opt/lib/libOpenFOAM.so(_ZN4Foam5error14safePrintStackERSo+0x42) [0x7e77f4e1dbd2]
#1	/home/student/OpenFOAM/OpenFOAM-13/platforms/linux64GccDPInt32Opt/lib/libshockFluidThermo.so(+0x56592) [0x7e77ed40d592]
#2	/lib64/ld-linux-x86-64.so.2(+0x571f) [0x7e77f706171f]
#3	/lib64/ld-linux-x86-64.so.2(+0x5824) [0x7e77f7061824]
#4	/lib64/ld-linux-x86-64.so.2(_dl_catch_exception+0x132) [0x7e77f705d5b2]
#5	/lib64/ld-linux-x86-64.so.2(+0xcd7c) [0x7e77f7068d7c]
#6	/lib64/ld-linux-x86-64.so.2(_dl_catch_exception+0x9c) [0x7e77f705d51c]
#7	/lib64/ld-linux-x86-64.so.2(+0xd164) [0x7e77f7069164]
#8	/lib/x86_64-linux-gnu/libc.so.6(+0x981a4) [0x7e77f3f771a4]
#9	/lib64/ld-linux-x86-64.so.2(_dl_catch_exception+0x9c) [0x7e77f705d51c]
#10	/lib64/ld-linux-x86-64.so.2(+0x1669) [0x7e77f705d669]
#11	/lib/x86_64-linux-gnu/libc.so.6(+0x97c83) [0x7e77f3f76c83]
#12	/lib/x86_64-linux-gnu/libc.so.6(dlopen+0x6f) [0x7e77f3f7725f]
#13	/home/student/OpenFOAM/OpenFOAM-13/platforms/linux64GccDPInt32Opt/lib/libOpenFOAM.so(_ZN4Foam6dlOpenERKNS_8fileNameEb+0x33) [0x7e77f4e169d3]
#14	/home/student/OpenFOAM/OpenFOAM-13/platforms/linux64GccDPInt32Opt/lib/libOpenFOAM.so(_ZN4Foam14dlLibraryTable4openERKNS_8fileNameEb+0x12d) [0x7e77f4a2471d]
#15	/home/student/OpenFOAM/OpenFOAM-13/platforms/linux64GccDPInt32Opt/lib/libfiniteVolume.so(_ZN4Foam6solver4loadERKNS_4wordE+0x18b) [0x7e77f693cd0b]
#16	foamRun(+0x3b6e) [0x614cd76e2b6e]
#17	/lib/x86_64-linux-gnu/libc.so.6(+0x2a1ca) [0x7e77f3f091ca]
#18	/lib/x86_64-linux-gnu/libc.so.6(__libc_start_main+0x8b) [0x7e77f3f0928b]
#19	foamRun(+0x46b5) [0x614cd76e36b5]
Duplicate entry mixedFixedValueSlip in runtime selection table fvPatchField
#0	/home/student/OpenFOAM/OpenFOAM-13/platforms/linux64GccDPInt32Opt/lib/libOpenFOAM.so(_ZN4Foam5error14safePrintStackERSo+0x42) [0x7e77f4e1dbd2]
#1	/home/student/OpenFOAM/OpenFOAM-13/platforms/linux64GccDPInt32Opt/lib/libshockFluidThermo.so(+0x565d8) [0x7e77ed40d5d8]
#2	/lib64/ld-linux-x86-64.so.2(+0x571f) [0x7e77f706171f]
#3	/lib64/ld-linux-x86-64.so.2(+0x5824) [0x7e77f7061824]
#4	/lib64/ld-linux-x86-64.so.2(_dl_catch_exception+0x132) [0x7e77f705d5b2]
#5	/lib64/ld-linux-x86-64.so.2(+0xcd7c) [0x7e77f7068d7c]
#6	/lib64/ld-linux-x86-64.so.2(_dl_catch_exception+0x9c) [0x7e77f705d51c]
#7	/lib64/ld-linux-x86-64.so.2(+0xd164) [0x7e77f7069164]
#8	/lib/x86_64-linux-gnu/libc.so.6(+0x981a4) [0x7e77f3f771a4]
#9	/lib64/ld-linux-x86-64.so.2(_dl_catch_exception+0x9c) [0x7e77f705d51c]
#10	/lib64/ld-linux-x86-64.so.2(+0x1669) [0x7e77f705d669]
#11	/lib/x86_64-linux-gnu/libc.so.6(+0x97c83) [0x7e77f3f76c83]
#12	/lib/x86_64-linux-gnu/libc.so.6(dlopen+0x6f) [0x7e77f3f7725f]
#13	/home/student/OpenFOAM/OpenFOAM-13/platforms/linux64GccDPInt32Opt/lib/libOpenFOAM.so(_ZN4Foam6dlOpenERKNS_8fileNameEb+0x33) [0x7e77f4e169d3]
#14	/home/student/OpenFOAM/OpenFOAM-13/platforms/linux64GccDPInt32Opt/lib/libOpenFOAM.so(_ZN4Foam14dlLibraryTable4openERKNS_8fileNameEb+0x12d) [0x7e77f4a2471d]
#15	/home/student/OpenFOAM/OpenFOAM-13/platforms/linux64GccDPInt32Opt/lib/libfiniteVolume.so(_ZN4Foam6solver4loadERKNS_4wordE+0x18b) [0x7e77f693cd0b]
#16	foamRun(+0x3b6e) [0x614cd76e2b6e]
#17	/lib/x86_64-linux-gnu/libc.so.6(+0x2a1ca) [0x7e77f3f091ca]
#18	/lib/x86_64-linux-gnu/libc.so.6(__libc_start_main+0x8b) [0x7e77f3f0928b]
#19	foamRun(+0x46b5) [0x614cd76e36b5]
Duplicate entry mixedFixedValueSlip in runtime selection table fvPatchField
#0	/home/student/OpenFOAM/OpenFOAM-13/platforms/linux64GccDPInt32Opt/lib/libOpenFOAM.so(_ZN4Foam5error14safePrintStackERSo+0x42) [0x7e77f4e1dbd2]
#1	/home/student/OpenFOAM/OpenFOAM-13/platforms/linux64GccDPInt32Opt/lib/libshockFluidThermo.so(+0x56651) [0x7e77ed40d651]
#2	/lib64/ld-linux-x86-64.so.2(+0x571f) [0x7e77f706171f]
#3	/lib64/ld-linux-x86-64.so.2(+0x5824) [0x7e77f7061824]
#4	/lib64/ld-linux-x86-64.so.2(_dl_catch_exception+0x132) [0x7e77f705d5b2]
#5	/lib64/ld-linux-x86-64.so.2(+0xcd7c) [0x7e77f7068d7c]
#6	/lib64/ld-linux-x86-64.so.2(_dl_catch_exception+0x9c) [0x7e77f705d51c]
#7	/lib64/ld-linux-x86-64.so.2(+0xd164) [0x7e77f7069164]
#8	/lib/x86_64-linux-gnu/libc.so.6(+0x981a4) [0x7e77f3f771a4]
#9	/lib64/ld-linux-x86-64.so.2(_dl_catch_exception+0x9c) [0x7e77f705d51c]
#10	/lib64/ld-linux-x86-64.so.2(+0x1669) [0x7e77f705d669]
#11	/lib/x86_64-linux-gnu/libc.so.6(+0x97c83) [0x7e77f3f76c83]
#12	/lib/x86_64-linux-gnu/libc.so.6(dlopen+0x6f) [0x7e77f3f7725f]
#13	/home/student/OpenFOAM/OpenFOAM-13/platforms/linux64GccDPInt32Opt/lib/libOpenFOAM.so(_ZN4Foam6dlOpenERKNS_8fileNameEb+0x33) [0x7e77f4e169d3]
#14	/home/student/OpenFOAM/OpenFOAM-13/platforms/linux64GccDPInt32Opt/lib/libOpenFOAM.so(_ZN4Foam14dlLibraryTable4openERKNS_8fileNameEb+0x12d) [0x7e77f4a2471d]
#15	/home/student/OpenFOAM/OpenFOAM-13/platforms/linux64GccDPInt32Opt/lib/libfiniteVolume.so(_ZN4Foam6solver4loadERKNS_4wordE+0x18b) [0x7e77f693cd0b]
#16	foamRun(+0x3b6e) [0x614cd76e2b6e]
#17	/lib/x86_64-linux-gnu/libc.so.6(+0x2a1ca) [0x7e77f3f091ca]
#18	/lib/x86_64-linux-gnu/libc.so.6(__libc_start_main+0x8b) [0x7e77f3f0928b]
#19	foamRun(+0x46b5) [0x614cd76e36b5]
Duplicate entry mixedFixedValueSlip in runtime selection table fvPatchField
#0	/home/student/OpenFOAM/OpenFOAM-13/platforms/linux64GccDPInt32Opt/lib/libOpenFOAM.so(_ZN4Foam5error14safePrintStackERSo+0x42) [0x7e77f4e1dbd2]
#1	/home/student/OpenFOAM/OpenFOAM-13/platforms/linux64GccDPInt32Opt/lib/libshockFluidThermo.so(+0x56697) [0x7e77ed40d697]
#2	/lib64/ld-linux-x86-64.so.2(+0x571f) [0x7e77f706171f]
#3	/lib64/ld-linux-x86-64.so.2(+0x5824) [0x7e77f7061824]
#4	/lib64/ld-linux-x86-64.so.2(_dl_catch_exception+0x132) [0x7e77f705d5b2]
#5	/lib64/ld-linux-x86-64.so.2(+0xcd7c) [0x7e77f7068d7c]
#6	/lib64/ld-linux-x86-64.so.2(_dl_catch_exception+0x9c) [0x7e77f705d51c]
#7	/lib64/ld-linux-x86-64.so.2(+0xd164) [0x7e77f7069164]
#8	/lib/x86_64-linux-gnu/libc.so.6(+0x981a4) [0x7e77f3f771a4]
#9	/lib64/ld-linux-x86-64.so.2(_dl_catch_exception+0x9c) [0x7e77f705d51c]
#10	/lib64/ld-linux-x86-64.so.2(+0x1669) [0x7e77f705d669]
#11	/lib/x86_64-linux-gnu/libc.so.6(+0x97c83) [0x7e77f3f76c83]
#12	/lib/x86_64-linux-gnu/libc.so.6(dlopen+0x6f) [0x7e77f3f7725f]
#13	/home/student/OpenFOAM/OpenFOAM-13/platforms/linux64GccDPInt32Opt/lib/libOpenFOAM.so(_ZN4Foam6dlOpenERKNS_8fileNameEb+0x33) [0x7e77f4e169d3]
#14	/home/student/OpenFOAM/OpenFOAM-13/platforms/linux64GccDPInt32Opt/lib/libOpenFOAM.so(_ZN4Foam14dlLibraryTable4openERKNS_8fileNameEb+0x12d) [0x7e77f4a2471d]
#15	/home/student/OpenFOAM/OpenFOAM-13/platforms/linux64GccDPInt32Opt/lib/libfiniteVolume.so(_ZN4Foam6solver4loadERKNS_4wordE+0x18b) [0x7e77f693cd0b]
#16	foamRun(+0x3b6e) [0x614cd76e2b6e]
#17	/lib/x86_64-linux-gnu/libc.so.6(+0x2a1ca) [0x7e77f3f091ca]
#18	/lib/x86_64-linux-gnu/libc.so.6(__libc_start_main+0x8b) [0x7e77f3f0928b]
#19	foamRun(+0x46b5) [0x614cd76e36b5]
Duplicate entry mixedFixedValueSlip in runtime selection table fvPatchField
#0	/home/student/OpenFOAM/OpenFOAM-13/platforms/linux64GccDPInt32Opt/lib/libOpenFOAM.so(_ZN4Foam5error14safePrintStackERSo+0x42) [0x7e77f4e1dbd2]
#1	/home/student/OpenFOAM/OpenFOAM-13/platforms/linux64GccDPInt32Opt/lib/libshockFluidThermo.so(+0x56713) [0x7e77ed40d713]
#2	/lib64/ld-linux-x86-64.so.2(+0x571f) [0x7e77f706171f]
#3	/lib64/ld-linux-x86-64.so.2(+0x5824) [0x7e77f7061824]
#4	/lib64/ld-linux-x86-64.so.2(_dl_catch_exception+0x132) [0x7e77f705d5b2]
#5	/lib64/ld-linux-x86-64.so.2(+0xcd7c) [0x7e77f7068d7c]
#6	/lib64/ld-linux-x86-64.so.2(_dl_catch_exception+0x9c) [0x7e77f705d51c]
#7	/lib64/ld-linux-x86-64.so.2(+0xd164) [0x7e77f7069164]
#8	/lib/x86_64-linux-gnu/libc.so.6(+0x981a4) [0x7e77f3f771a4]
#9	/lib64/ld-linux-x86-64.so.2(_dl_catch_exception+0x9c) [0x7e77f705d51c]
#10	/lib64/ld-linux-x86-64.so.2(+0x1669) [0x7e77f705d669]
#11	/lib/x86_64-linux-gnu/libc.so.6(+0x97c83) [0x7e77f3f76c83]
#12	/lib/x86_64-linux-gnu/libc.so.6(dlopen+0x6f) [0x7e77f3f7725f]
#13	/home/student/OpenFOAM/OpenFOAM-13/platforms/linux64GccDPInt32Opt/lib/libOpenFOAM.so(_ZN4Foam6dlOpenERKNS_8fileNameEb+0x33) [0x7e77f4e169d3]
#14	/home/student/OpenFOAM/OpenFOAM-13/platforms/linux64GccDPInt32Opt/lib/libOpenFOAM.so(_ZN4Foam14dlLibraryTable4openERKNS_8fileNameEb+0x12d) [0x7e77f4a2471d]
#15	/home/student/OpenFOAM/OpenFOAM-13/platforms/linux64GccDPInt32Opt/lib/libfiniteVolume.so(_ZN4Foam6solver4loadERKNS_4wordE+0x18b) [0x7e77f693cd0b]
#16	foamRun(+0x3b6e) [0x614cd76e2b6e]
#17	/lib/x86_64-linux-gnu/libc.so.6(+0x2a1ca) [0x7e77f3f091ca]
#18	/lib/x86_64-linux-gnu/libc.so.6(__libc_start_main+0x8b) [0x7e77f3f0928b]
#19	foamRun(+0x46b5) [0x614cd76e36b5]
Duplicate entry mixedFixedValueSlip in runtime selection table fvPatchField
#0	/home/student/OpenFOAM/OpenFOAM-13/platforms/linux64GccDPInt32Opt/lib/libOpenFOAM.so(_ZN4Foam5error14safePrintStackERSo+0x42) [0x7e77f4e1dbd2]
#1	/home/student/OpenFOAM/OpenFOAM-13/platforms/linux64GccDPInt32Opt/lib/libshockFluidThermo.so(+0x56758) [0x7e77ed40d758]
#2	/lib64/ld-linux-x86-64.so.2(+0x571f) [0x7e77f706171f]
#3	/lib64/ld-linux-x86-64.so.2(+0x5824) [0x7e77f7061824]
#4	/lib64/ld-linux-x86-64.so.2(_dl_catch_exception+0x132) [0x7e77f705d5b2]
#5	/lib64/ld-linux-x86-64.so.2(+0xcd7c) [0x7e77f7068d7c]
#6	/lib64/ld-linux-x86-64.so.2(_dl_catch_exception+0x9c) [0x7e77f705d51c]
#7	/lib64/ld-linux-x86-64.so.2(+0xd164) [0x7e77f7069164]
#8	/lib/x86_64-linux-gnu/libc.so.6(+0x981a4) [0x7e77f3f771a4]
#9	/lib64/ld-linux-x86-64.so.2(_dl_catch_exception+0x9c) [0x7e77f705d51c]
#10	/lib64/ld-linux-x86-64.so.2(+0x1669) [0x7e77f705d669]
#11	/lib/x86_64-linux-gnu/libc.so.6(+0x97c83) [0x7e77f3f76c83]
#12	/lib/x86_64-linux-gnu/libc.so.6(dlopen+0x6f) [0x7e77f3f7725f]
#13	/home/student/OpenFOAM/OpenFOAM-13/platforms/linux64GccDPInt32Opt/lib/libOpenFOAM.so(_ZN4Foam6dlOpenERKNS_8fileNameEb+0x33) [0x7e77f4e169d3]
#14	/home/student/OpenFOAM/OpenFOAM-13/platforms/linux64GccDPInt32Opt/lib/libOpenFOAM.so(_ZN4Foam14dlLibraryTable4openERKNS_8fileNameEb+0x12d) [0x7e77f4a2471d]
#15	/home/student/OpenFOAM/OpenFOAM-13/platforms/linux64GccDPInt32Opt/lib/libfiniteVolume.so(_ZN4Foam6solver4loadERKNS_4wordE+0x18b) [0x7e77f693cd0b]
#16	foamRun(+0x3b6e) [0x614cd76e2b6e]
#17	/lib/x86_64-linux-gnu/libc.so.6(+0x2a1ca) [0x7e77f3f091ca]
#18	/lib/x86_64-linux-gnu/libc.so.6(__libc_start_main+0x8b) [0x7e77f3f0928b]
#19	foamRun(+0x46b5) [0x614cd76e36b5]
Duplicate entry maxwellSlipU in runtime selection table fvPatchField
#0	/home/student/OpenFOAM/OpenFOAM-13/platforms/linux64GccDPInt32Opt/lib/libOpenFOAM.so(_ZN4Foam5error14safePrintStackERSo+0x42) [0x7e77f4e1dbd2]
#1	/home/student/OpenFOAM/OpenFOAM-13/platforms/linux64GccDPInt32Opt/lib/libshockFluidThermo.so(+0x56825) [0x7e77ed40d825]
#2	/lib64/ld-linux-x86-64.so.2(+0x571f) [0x7e77f706171f]
#3	/lib64/ld-linux-x86-64.so.2(+0x5824) [0x7e77f7061824]
#4	/lib64/ld-linux-x86-64.so.2(_dl_catch_exception+0x132) [0x7e77f705d5b2]
#5	/lib64/ld-linux-x86-64.so.2(+0xcd7c) [0x7e77f7068d7c]
#6	/lib64/ld-linux-x86-64.so.2(_dl_catch_exception+0x9c) [0x7e77f705d51c]
#7	/lib64/ld-linux-x86-64.so.2(+0xd164) [0x7e77f7069164]
#8	/lib/x86_64-linux-gnu/libc.so.6(+0x981a4) [0x7e77f3f771a4]
#9	/lib64/ld-linux-x86-64.so.2(_dl_catch_exception+0x9c) [0x7e77f705d51c]
#10	/lib64/ld-linux-x86-64.so.2(+0x1669) [0x7e77f705d669]
#11	/lib/x86_64-linux-gnu/libc.so.6(+0x97c83) [0x7e77f3f76c83]
#12	/lib/x86_64-linux-gnu/libc.so.6(dlopen+0x6f) [0x7e77f3f7725f]
#13	/home/student/OpenFOAM/OpenFOAM-13/platforms/linux64GccDPInt32Opt/lib/libOpenFOAM.so(_ZN4Foam6dlOpenERKNS_8fileNameEb+0x33) [0x7e77f4e169d3]
#14	/home/student/OpenFOAM/OpenFOAM-13/platforms/linux64GccDPInt32Opt/lib/libOpenFOAM.so(_ZN4Foam14dlLibraryTable4openERKNS_8fileNameEb+0x12d) [0x7e77f4a2471d]
#15	/home/student/OpenFOAM/OpenFOAM-13/platforms/linux64GccDPInt32Opt/lib/libfiniteVolume.so(_ZN4Foam6solver4loadERKNS_4wordE+0x18b) [0x7e77f693cd0b]
#16	foamRun(+0x3b6e) [0x614cd76e2b6e]
#17	/lib/x86_64-linux-gnu/libc.so.6(+0x2a1ca) [0x7e77f3f091ca]
#18	/lib/x86_64-linux-gnu/libc.so.6(__libc_start_main+0x8b) [0x7e77f3f0928b]
#19	foamRun(+0x46b5) [0x614cd76e36b5]
Duplicate entry maxwellSlipU in runtime selection table fvPatchField
#0	/home/student/OpenFOAM/OpenFOAM-13/platforms/linux64GccDPInt32Opt/lib/libOpenFOAM.so(_ZN4Foam5error14safePrintStackERSo+0x42) [0x7e77f4e1dbd2]
#1	/home/student/OpenFOAM/OpenFOAM-13/platforms/linux64GccDPInt32Opt/lib/libshockFluidThermo.so(+0x5686a) [0x7e77ed40d86a]
#2	/lib64/ld-linux-x86-64.so.2(+0x571f) [0x7e77f706171f]
#3	/lib64/ld-linux-x86-64.so.2(+0x5824) [0x7e77f7061824]
#4	/lib64/ld-linux-x86-64.so.2(_dl_catch_exception+0x132) [0x7e77f705d5b2]
#5	/lib64/ld-linux-x86-64.so.2(+0xcd7c) [0x7e77f7068d7c]
#6	/lib64/ld-linux-x86-64.so.2(_dl_catch_exception+0x9c) [0x7e77f705d51c]
#7	/lib64/ld-linux-x86-64.so.2(+0xd164) [0x7e77f7069164]
#8	/lib/x86_64-linux-gnu/libc.so.6(+0x981a4) [0x7e77f3f771a4]
#9	/lib64/ld-linux-x86-64.so.2(_dl_catch_exception+0x9c) [0x7e77f705d51c]
#10	/lib64/ld-linux-x86-64.so.2(+0x1669) [0x7e77f705d669]
#11	/lib/x86_64-linux-gnu/libc.so.6(+0x97c83) [0x7e77f3f76c83]
#12	/lib/x86_64-linux-gnu/libc.so.6(dlopen+0x6f) [0x7e77f3f7725f]
#13	/home/student/OpenFOAM/OpenFOAM-13/platforms/linux64GccDPInt32Opt/lib/libOpenFOAM.so(_ZN4Foam6dlOpenERKNS_8fileNameEb+0x33) [0x7e77f4e169d3]
#14	/home/student/OpenFOAM/OpenFOAM-13/platforms/linux64GccDPInt32Opt/lib/libOpenFOAM.so(_ZN4Foam14dlLibraryTable4openERKNS_8fileNameEb+0x12d) [0x7e77f4a2471d]
#15	/home/student/OpenFOAM/OpenFOAM-13/platforms/linux64GccDPInt32Opt/lib/libfiniteVolume.so(_ZN4Foam6solver4loadERKNS_4wordE+0x18b) [0x7e77f693cd0b]
#16	foamRun(+0x3b6e) [0x614cd76e2b6e]
#17	/lib/x86_64-linux-gnu/libc.so.6(+0x2a1ca) [0x7e77f3f091ca]
#18	/lib/x86_64-linux-gnu/libc.so.6(__libc_start_main+0x8b) [0x7e77f3f0928b]
#19	foamRun(+0x46b5) [0x614cd76e36b5]
Duplicate entry smoluchowskiJumpT in runtime selection table fvPatchField
#0	/home/student/OpenFOAM/OpenFOAM-13/platforms/linux64GccDPInt32Opt/lib/libOpenFOAM.so(_ZN4Foam5error14safePrintStackERSo+0x42) [0x7e77f4e1dbd2]
#1	/home/student/OpenFOAM/OpenFOAM-13/platforms/linux64GccDPInt32Opt/lib/libshockFluidThermo.so(+0x56927) [0x7e77ed40d927]
#2	/lib64/ld-linux-x86-64.so.2(+0x571f) [0x7e77f706171f]
#3	/lib64/ld-linux-x86-64.so.2(+0x5824) [0x7e77f7061824]
#4	/lib64/ld-linux-x86-64.so.2(_dl_catch_exception+0x132) [0x7e77f705d5b2]
#5	/lib64/ld-linux-x86-64.so.2(+0xcd7c) [0x7e77f7068d7c]
#6	/lib64/ld-linux-x86-64.so.2(_dl_catch_exception+0x9c) [0x7e77f705d51c]
#7	/lib64/ld-linux-x86-64.so.2(+0xd164) [0x7e77f7069164]
#8	/lib/x86_64-linux-gnu/libc.so.6(+0x981a4) [0x7e77f3f771a4]
#9	/lib64/ld-linux-x86-64.so.2(_dl_catch_exception+0x9c) [0x7e77f705d51c]
#10	/lib64/ld-linux-x86-64.so.2(+0x1669) [0x7e77f705d669]
#11	/lib/x86_64-linux-gnu/libc.so.6(+0x97c83) [0x7e77f3f76c83]
#12	/lib/x86_64-linux-gnu/libc.so.6(dlopen+0x6f) [0x7e77f3f7725f]
#13	/home/student/OpenFOAM/OpenFOAM-13/platforms/linux64GccDPInt32Opt/lib/libOpenFOAM.so(_ZN4Foam6dlOpenERKNS_8fileNameEb+0x33) [0x7e77f4e169d3]
#14	/home/student/OpenFOAM/OpenFOAM-13/platforms/linux64GccDPInt32Opt/lib/libOpenFOAM.so(_ZN4Foam14dlLibraryTable4openERKNS_8fileNameEb+0x12d) [0x7e77f4a2471d]
#15	/home/student/OpenFOAM/OpenFOAM-13/platforms/linux64GccDPInt32Opt/lib/libfiniteVolume.so(_ZN4Foam6solver4loadERKNS_4wordE+0x18b) [0x7e77f693cd0b]
#16	foamRun(+0x3b6e) [0x614cd76e2b6e]
#17	/lib/x86_64-linux-gnu/libc.so.6(+0x2a1ca) [0x7e77f3f091ca]
#18	/lib/x86_64-linux-gnu/libc.so.6(__libc_start_main+0x8b) [0x7e77f3f0928b]
#19	foamRun(+0x46b5) [0x614cd76e36b5]
Duplicate entry smoluchowskiJumpT in runtime selection table fvPatchField
#0	/home/student/OpenFOAM/OpenFOAM-13/platforms/linux64GccDPInt32Opt/lib/libOpenFOAM.so(_ZN4Foam5error14safePrintStackERSo+0x42) [0x7e77f4e1dbd2]
#1	/home/student/OpenFOAM/OpenFOAM-13/platforms/linux64GccDPInt32Opt/lib/libshockFluidThermo.so(+0x5696c) [0x7e77ed40d96c]
#2	/lib64/ld-linux-x86-64.so.2(+0x571f) [0x7e77f706171f]
#3	/lib64/ld-linux-x86-64.so.2(+0x5824) [0x7e77f7061824]
#4	/lib64/ld-linux-x86-64.so.2(_dl_catch_exception+0x132) [0x7e77f705d5b2]
#5	/lib64/ld-linux-x86-64.so.2(+0xcd7c) [0x7e77f7068d7c]
#6	/lib64/ld-linux-x86-64.so.2(_dl_catch_exception+0x9c) [0x7e77f705d51c]
#7	/lib64/ld-linux-x86-64.so.2(+0xd164) [0x7e77f7069164]
#8	/lib/x86_64-linux-gnu/libc.so.6(+0x981a4) [0x7e77f3f771a4]
#9	/lib64/ld-linux-x86-64.so.2(_dl_catch_exception+0x9c) [0x7e77f705d51c]
#10	/lib64/ld-linux-x86-64.so.2(+0x1669) [0x7e77f705d669]
#11	/lib/x86_64-linux-gnu/libc.so.6(+0x97c83) [0x7e77f3f76c83]
#12	/lib/x86_64-linux-gnu/libc.so.6(dlopen+0x6f) [0x7e77f3f7725f]
#13	/home/student/OpenFOAM/OpenFOAM-13/platforms/linux64GccDPInt32Opt/lib/libOpenFOAM.so(_ZN4Foam6dlOpenERKNS_8fileNameEb+0x33) [0x7e77f4e169d3]
#14	/home/student/OpenFOAM/OpenFOAM-13/platforms/linux64GccDPInt32Opt/lib/libOpenFOAM.so(_ZN4Foam14dlLibraryTable4openERKNS_8fileNameEb+0x12d) [0x7e77f4a2471d]
#15	/home/student/OpenFOAM/OpenFOAM-13/platforms/linux64GccDPInt32Opt/lib/libfiniteVolume.so(_ZN4Foam6solver4loadERKNS_4wordE+0x18b) [0x7e77f693cd0b]
#16	foamRun(+0x3b6e) [0x614cd76e2b6e]
#17	/lib/x86_64-linux-gnu/libc.so.6(+0x2a1ca) [0x7e77f3f091ca]
#18	/lib/x86_64-linux-gnu/libc.so.6(__libc_start_main+0x8b) [0x7e77f3f0928b]
#19	foamRun(+0x46b5) [0x614cd76e36b5]
Duplicate entry fixedRho in runtime selection table fvPatchField
#0	/home/student/OpenFOAM/OpenFOAM-13/platforms/linux64GccDPInt32Opt/lib/libOpenFOAM.so(_ZN4Foam5error14safePrintStackERSo+0x42) [0x7e77f4e1dbd2]
#1	/home/student/OpenFOAM/OpenFOAM-13/platforms/linux64GccDPInt32Opt/lib/libshockFluidThermo.so(+0x56a27) [0x7e77ed40da27]
#2	/lib64/ld-linux-x86-64.so.2(+0x571f) [0x7e77f706171f]
#3	/lib64/ld-linux-x86-64.so.2(+0x5824) [0x7e77f7061824]
#4	/lib64/ld-linux-x86-64.so.2(_dl_catch_exception+0x132) [0x7e77f705d5b2]
#5	/lib64/ld-linux-x86-64.so.2(+0xcd7c) [0x7e77f7068d7c]
#6	/lib64/ld-linux-x86-64.so.2(_dl_catch_exception+0x9c) [0x7e77f705d51c]
#7	/lib64/ld-linux-x86-64.so.2(+0xd164) [0x7e77f7069164]
#8	/lib/x86_64-linux-gnu/libc.so.6(+0x981a4) [0x7e77f3f771a4]
#9	/lib64/ld-linux-x86-64.so.2(_dl_catch_exception+0x9c) [0x7e77f705d51c]
#10	/lib64/ld-linux-x86-64.so.2(+0x1669) [0x7e77f705d669]
#11	/lib/x86_64-linux-gnu/libc.so.6(+0x97c83) [0x7e77f3f76c83]
#12	/lib/x86_64-linux-gnu/libc.so.6(dlopen+0x6f) [0x7e77f3f7725f]
#13	/home/student/OpenFOAM/OpenFOAM-13/platforms/linux64GccDPInt32Opt/lib/libOpenFOAM.so(_ZN4Foam6dlOpenERKNS_8fileNameEb+0x33) [0x7e77f4e169d3]
#14	/home/student/OpenFOAM/OpenFOAM-13/platforms/linux64GccDPInt32Opt/lib/libOpenFOAM.so(_ZN4Foam14dlLibraryTable4openERKNS_8fileNameEb+0x12d) [0x7e77f4a2471d]
#15	/home/student/OpenFOAM/OpenFOAM-13/platforms/linux64GccDPInt32Opt/lib/libfiniteVolume.so(_ZN4Foam6solver4loadERKNS_4wordE+0x18b) [0x7e77f693cd0b]
#16	foamRun(+0x3b6e) [0x614cd76e2b6e]
#17	/lib/x86_64-linux-gnu/libc.so.6(+0x2a1ca) [0x7e77f3f091ca]
#18	/lib/x86_64-linux-gnu/libc.so.6(__libc_start_main+0x8b) [0x7e77f3f0928b]
#19	foamRun(+0x46b5) [0x614cd76e36b5]
Duplicate entry fixedRho in runtime selection table fvPatchField
#0	/home/student/OpenFOAM/OpenFOAM-13/platforms/linux64GccDPInt32Opt/lib/libOpenFOAM.so(_ZN4Foam5error14safePrintStackERSo+0x42) [0x7e77f4e1dbd2]
#1	/home/student/OpenFOAM/OpenFOAM-13/platforms/linux64GccDPInt32Opt/lib/libshockFluidThermo.so(+0x56a6c) [0x7e77ed40da6c]
#2	/lib64/ld-linux-x86-64.so.2(+0x571f) [0x7e77f706171f]
#3	/lib64/ld-linux-x86-64.so.2(+0x5824) [0x7e77f7061824]
#4	/lib64/ld-linux-x86-64.so.2(_dl_catch_exception+0x132) [0x7e77f705d5b2]
#5	/lib64/ld-linux-x86-64.so.2(+0xcd7c) [0x7e77f7068d7c]
#6	/lib64/ld-linux-x86-64.so.2(_dl_catch_exception+0x9c) [0x7e77f705d51c]
#7	/lib64/ld-linux-x86-64.so.2(+0xd164) [0x7e77f7069164]
#8	/lib/x86_64-linux-gnu/libc.so.6(+0x981a4) [0x7e77f3f771a4]
#9	/lib64/ld-linux-x86-64.so.2(_dl_catch_exception+0x9c) [0x7e77f705d51c]
#10	/lib64/ld-linux-x86-64.so.2(+0x1669) [0x7e77f705d669]
#11	/lib/x86_64-linux-gnu/libc.so.6(+0x97c83) [0x7e77f3f76c83]
#12	/lib/x86_64-linux-gnu/libc.so.6(dlopen+0x6f) [0x7e77f3f7725f]
#13	/home/student/OpenFOAM/OpenFOAM-13/platforms/linux64GccDPInt32Opt/lib/libOpenFOAM.so(_ZN4Foam6dlOpenERKNS_8fileNameEb+0x33) [0x7e77f4e169d3]
#14	/home/student/OpenFOAM/OpenFOAM-13/platforms/linux64GccDPInt32Opt/lib/libOpenFOAM.so(_ZN4Foam14dlLibraryTable4openERKNS_8fileNameEb+0x12d) [0x7e77f4a2471d]
#15	/home/student/OpenFOAM/OpenFOAM-13/platforms/linux64GccDPInt32Opt/lib/libfiniteVolume.so(_ZN4Foam6solver4loadERKNS_4wordE+0x18b) [0x7e77f693cd0b]
#16	foamRun(+0x3b6e) [0x614cd76e2b6e]
#17	/lib/x86_64-linux-gnu/libc.so.6(+0x2a1ca) [0x7e77f3f091ca]
#18	/lib/x86_64-linux-gnu/libc.so.6(__libc_start_main+0x8b) [0x7e77f3f0928b]
#19	foamRun(+0x46b5) [0x614cd76e36b5]
Create mesh for time = 0

Selecting solver shockThermo
Selecting thermodynamics package 
{
    type            hePsiThermo;
    mixture         reactingMixture;
    transport       sutherland;
    thermo          janaf;
    energy          sensibleEnthalpy;
    equationOfState perfectGas;
    specie          specie;
}



--> FOAM FATAL IO ERROR: 
"ill defined primitiveEntry starting at keyword 'type(' on line 17 and ending at line 64"

file: /home/student/.OpenFOAM/13/codeTemplates/dynamicCode/psiThermo at line 64.

    From function void Foam::primitiveEntry::readEntry(const Foam::dictionary&, Foam::Istream&)
    in file db/dictionary/primitiveEntry/primitiveEntryIO.C at line 95.

FOAM exiting

