/*---------------------------------------------------------------------------*\
  =========                 |
  \\      /  F ield         | OpenFOAM: The Open Source CFD Toolbox
   \\    /   O peration     | Website:  https://openfoam.org
    \\  /    A nd           | Version:  13
     \\/     M anipulation  |
\*---------------------------------------------------------------------------*/
Build  : 13-5599db86c70d
Exec   : foamRun
Date   : Dec 16 2025
Time   : 15:28:25
Host   : "b3ef838fb406"
PID    : 4695
I/O    : uncollated
Case   : /home/student/OpenFOAM/student-13/run/aeroHPC/OpenFOAM/tutorials/shockThermo/shockTube
nProcs : 1
sigFpe : Enabling floating point exception trapping (FOAM_SIGFPE).
fileModificationChecking : Monitoring run-time modified files using timeStampMaster (fileModificationSkew 10)
allowSystemOperations : Allowing user-supplied system call operations

// * * * * * * * * * * * * * * * * * * * * * * * * * * * * * * * * * * * * * //
Create time

Create mesh for time = 0

Selecting solver shockThermo
Selecting thermodynamics package 
{
    type            highEnthalpyThermo;
    mixture         coefficientWilkeMulticomponentMixture;
    transport       sutherland;
    thermo          janaf;
    energy          sensibleInternalEnergy;
    equationOfState perfectGas;
    specie          specie;
}

--> FOAM Warning : 
    From function const Foam::HashTable<Foam::List<int>, Foam::word>& Foam::polyBoundaryMesh::groupPatchIndices() const
    in file meshes/polyMesh/polyBoundaryMesh/polyBoundaryMesh.C at line 506
    Removing patchGroup 'empty' which clashes with patch 1 of the same name.
highEnthalpyMulticomponentThermo::composite - constructor
--> FOAM Warning : 
    From function Foam::scalar Foam::janafThermo<EquationOfState>::limit(Foam::scalar) const [with EquationOfState = Foam::perfectGas<Foam::specie>; Foam::scalar = double]
    in file /home/student/OpenFOAM/student-13/run/OpenFOAM/OpenFOAM-13/src/thermophysicalModels/specie/lnInclude/janafThermoI.H at line 117
    attempt to use janafThermo<EquationOfState> out of temperature range 298.15 -> 20000;  T = 278.746
--> FOAM Warning : 
    From function Foam::scalar Foam::janafThermo<EquationOfState>::limit(Foam::scalar) const [with EquationOfState = Foam::perfectGas<Foam::specie>; Foam::scalar = double]
    in file /home/student/OpenFOAM/student-13/run/OpenFOAM/OpenFOAM-13/src/thermophysicalModels/specie/lnInclude/janafThermoI.H at line 117
    attempt to use janafThermo<EquationOfState> out of temperature range 298.15 -> 20000;  T = 278.803
--> FOAM Warning : 
    From function Foam::scalar Foam::janafThermo<EquationOfState>::limit(Foam::scalar) const [with EquationOfState = Foam::perfectGas<Foam::specie>; Foam::scalar = double]
    in file /home/student/OpenFOAM/student-13/run/OpenFOAM/OpenFOAM-13/src/thermophysicalModels/specie/lnInclude/janafThermoI.H at line 117
    attempt to use janafThermo<EquationOfState> out of temperature range 298.15 -> 20000;  T = 278.746
--> FOAM Warning : 
    From function Foam::scalar Foam::janafThermo<EquationOfState>::limit(Foam::scalar) const [with EquationOfState = Foam::perfectGas<Foam::specie>; Foam::scalar = double]
    in file /home/student/OpenFOAM/student-13/run/OpenFOAM/OpenFOAM-13/src/thermophysicalModels/specie/lnInclude/janafThermoI.H at line 117
    attempt to use janafThermo<EquationOfState> out of temperature range 298.15 -> 20000;  T = 278.803
--> FOAM Warning : 
    From function Foam::scalar Foam::janafThermo<EquationOfState>::limit(Foam::scalar) const [with EquationOfState = Foam::perfectGas<Foam::specie>; Foam::scalar = double]
    in file /home/student/OpenFOAM/student-13/run/OpenFOAM/OpenFOAM-13/src/thermophysicalModels/specie/lnInclude/janafThermoI.H at line 117
    attempt to use janafThermo<EquationOfState> out of temperature range 298.15 -> 20000;  T = 278.746
--> FOAM Warning : 
    From function Foam::scalar Foam::janafThermo<EquationOfState>::limit(Foam::scalar) const [with EquationOfState = Foam::perfectGas<Foam::specie>; Foam::scalar = double]
    in file /home/student/OpenFOAM/student-13/run/OpenFOAM/OpenFOAM-13/src/thermophysicalModels/specie/lnInclude/janafThermoI.H at line 117
    attempt to use janafThermo<EquationOfState> out of temperature range 298.15 -> 20000;  T = 278.803
--> FOAM Warning : 
    From function Foam::scalar Foam::janafThermo<EquationOfState>::limit(Foam::scalar) const [with EquationOfState = Foam::perfectGas<Foam::specie>; Foam::scalar = double]
    in file /home/student/OpenFOAM/student-13/run/OpenFOAM/OpenFOAM-13/src/thermophysicalModels/specie/lnInclude/janafThermoI.H at line 117
    attempt to use janafThermo<EquationOfState> out of temperature range 298.15 -> 20000;  T = 278.746
--> FOAM Warning : 
    From function Foam::scalar Foam::janafThermo<EquationOfState>::limit(Foam::scalar) const [with EquationOfState = Foam::perfectGas<Foam::specie>; Foam::scalar = double]
    in file /home/student/OpenFOAM/student-13/run/OpenFOAM/OpenFOAM-13/src/thermophysicalModels/specie/lnInclude/janafThermoI.H at line 117
    attempt to use janafThermo<EquationOfState> out of temperature range 298.15 -> 20000;  T = 278.803
--> FOAM Warning : 
    From function Foam::scalar Foam::janafThermo<EquationOfState>::limit(Foam::scalar) const [with EquationOfState = Foam::perfectGas<Foam::specie>; Foam::scalar = double]
    in file /home/student/OpenFOAM/student-13/run/OpenFOAM/OpenFOAM-13/src/thermophysicalModels/specie/lnInclude/janafThermoI.H at line 117
    attempt to use janafThermo<EquationOfState> out of temperature range 298.15 -> 20000;  T = 278.746
--> FOAM Warning : 
    From function Foam::scalar Foam::janafThermo<EquationOfState>::limit(Foam::scalar) const [with EquationOfState = Foam::perfectGas<Foam::specie>; Foam::scalar = double]
    in file /home/student/OpenFOAM/student-13/run/OpenFOAM/OpenFOAM-13/src/thermophysicalModels/specie/lnInclude/janafThermoI.H at line 117
    attempt to use janafThermo<EquationOfState> out of temperature range 298.15 -> 20000;  T = 278.803
--> FOAM Warning : 
    From function Foam::scalar Foam::janafThermo<EquationOfState>::limit(Foam::scalar) const [with EquationOfState = Foam::perfectGas<Foam::specie>; Foam::scalar = double]
    in file /home/student/OpenFOAM/student-13/run/OpenFOAM/OpenFOAM-13/src/thermophysicalModels/specie/lnInclude/janafThermoI.H at line 117
    attempt to use janafThermo<EquationOfState> out of temperature range 298.15 -> 20000;  T = 278.746
--> FOAM Warning : 
    From function Foam::scalar Foam::janafThermo<EquationOfState>::limit(Foam::scalar) const [with EquationOfState = Foam::perfectGas<Foam::specie>; Foam::scalar = double]
    in file /home/student/OpenFOAM/student-13/run/OpenFOAM/OpenFOAM-13/src/thermophysicalModels/specie/lnInclude/janafThermoI.H at line 117
    attempt to use janafThermo<EquationOfState> out of temperature range 298.15 -> 20000;  T = 278.803
--> FOAM Warning : 
    From function Foam::scalar Foam::janafThermo<EquationOfState>::limit(Foam::scalar) const [with EquationOfState = Foam::perfectGas<Foam::specie>; Foam::scalar = double]
    in file /home/student/OpenFOAM/student-13/run/OpenFOAM/OpenFOAM-13/src/thermophysicalModels/specie/lnInclude/janafThermoI.H at line 117
    attempt to use janafThermo<EquationOfState> out of temperature range 298.15 -> 20000;  T = 278.746
--> FOAM Warning : 
    From function Foam::scalar Foam::janafThermo<EquationOfState>::limit(Foam::scalar) const [with EquationOfState = Foam::perfectGas<Foam::specie>; Foam::scalar = double]
    in file /home/student/OpenFOAM/student-13/run/OpenFOAM/OpenFOAM-13/src/thermophysicalModels/specie/lnInclude/janafThermoI.H at line 117
    attempt to use janafThermo<EquationOfState> out of temperature range 298.15 -> 20000;  T = 278.803
--> FOAM Warning : 
    From function Foam::scalar Foam::janafThermo<EquationOfState>::limit(Foam::scalar) const [with EquationOfState = Foam::perfectGas<Foam::specie>; Foam::scalar = double]
    in file /home/student/OpenFOAM/student-13/run/OpenFOAM/OpenFOAM-13/src/thermophysicalModels/specie/lnInclude/janafThermoI.H at line 117
    attempt to use janafThermo<EquationOfState> out of temperature range 298.15 -> 20000;  T = 278.746
--> FOAM Warning : 
    From function Foam::scalar Foam::janafThermo<EquationOfState>::limit(Foam::scalar) const [with EquationOfState = Foam::perfectGas<Foam::specie>; Foam::scalar = double]
    in file /home/student/OpenFOAM/student-13/run/OpenFOAM/OpenFOAM-13/src/thermophysicalModels/specie/lnInclude/janafThermoI.H at line 117
    attempt to use janafThermo<EquationOfState> out of temperature range 298.15 -> 20000;  T = 278.803
--> FOAM Warning : 
    From function Foam::scalar Foam::janafThermo<EquationOfState>::limit(Foam::scalar) const [with EquationOfState = Foam::perfectGas<Foam::specie>; Foam::scalar = double]
    in file /home/student/OpenFOAM/student-13/run/OpenFOAM/OpenFOAM-13/src/thermophysicalModels/specie/lnInclude/janafThermoI.H at line 117
    attempt to use janafThermo<EquationOfState> out of temperature range 298.15 -> 20000;  T = 278.746
--> FOAM Warning : 
    From function Foam::scalar Foam::janafThermo<EquationOfState>::limit(Foam::scalar) const [with EquationOfState = Foam::perfectGas<Foam::specie>; Foam::scalar = double]
    in file /home/student/OpenFOAM/student-13/run/OpenFOAM/OpenFOAM-13/src/thermophysicalModels/specie/lnInclude/janafThermoI.H at line 117
    attempt to use janafThermo<EquationOfState> out of temperature range 298.15 -> 20000;  T = 278.803
--> FOAM Warning : 
    From function Foam::scalar Foam::janafThermo<EquationOfState>::limit(Foam::scalar) const [with EquationOfState = Foam::perfectGas<Foam::specie>; Foam::scalar = double]
    in file /home/student/OpenFOAM/student-13/run/OpenFOAM/OpenFOAM-13/src/thermophysicalModels/specie/lnInclude/janafThermoI.H at line 117
    attempt to use janafThermo<EquationOfState> out of temperature range 298.15 -> 20000;  T = 278.746
--> FOAM Warning : 
    From function Foam::scalar Foam::janafThermo<EquationOfState>::limit(Foam::scalar) const [with EquationOfState = Foam::perfectGas<Foam::specie>; Foam::scalar = double]
    in file /home/student/OpenFOAM/student-13/run/OpenFOAM/OpenFOAM-13/src/thermophysicalModels/specie/lnInclude/janafThermoI.H at line 117
    attempt to use janafThermo<EquationOfState> out of temperature range 298.15 -> 20000;  T = 278.803
--> FOAM Warning : 
    From function Foam::scalar Foam::janafThermo<EquationOfState>::limit(Foam::scalar) const [with EquationOfState = Foam::perfectGas<Foam::specie>; Foam::scalar = double]
    in file /home/student/OpenFOAM/student-13/run/OpenFOAM/OpenFOAM-13/src/thermophysicalModels/specie/lnInclude/janafThermoI.H at line 117
    attempt to use janafThermo<EquationOfState> out of temperature range 298.15 -> 20000;  T = 278.746
--> FOAM Warning : 
    From function Foam::scalar Foam::janafThermo<EquationOfState>::limit(Foam::scalar) const [with EquationOfState = Foam::perfectGas<Foam::specie>; Foam::scalar = double]
    in file /home/student/OpenFOAM/student-13/run/OpenFOAM/OpenFOAM-13/src/thermophysicalModels/specie/lnInclude/janafThermoI.H at line 117
    attempt to use janafThermo<EquationOfState> out of temperature range 298.15 -> 20000;  T = 278.803
--> FOAM Warning : 
    From function Foam::scalar Foam::janafThermo<EquationOfState>::limit(Foam::scalar) const [with EquationOfState = Foam::perfectGas<Foam::specie>; Foam::scalar = double]
    in file /home/student/OpenFOAM/student-13/run/OpenFOAM/OpenFOAM-13/src/thermophysicalModels/specie/lnInclude/janafThermoI.H at line 117
    attempt to use janafThermo<EquationOfState> out of temperature range 298.15 -> 20000;  T = 278.746
--> FOAM Warning : 
    From function Foam::scalar Foam::janafThermo<EquationOfState>::limit(Foam::scalar) const [with EquationOfState = Foam::perfectGas<Foam::specie>; Foam::scalar = double]
    in file /home/student/OpenFOAM/student-13/run/OpenFOAM/OpenFOAM-13/src/thermophysicalModels/specie/lnInclude/janafThermoI.H at line 117
    attempt to use janafThermo<EquationOfState> out of temperature range 298.15 -> 20000;  T = 278.803
--> FOAM Warning : 
    From function Foam::scalar Foam::janafThermo<EquationOfState>::limit(Foam::scalar) const [with EquationOfState = Foam::perfectGas<Foam::specie>; Foam::scalar = double]
    in file /home/student/OpenFOAM/student-13/run/OpenFOAM/OpenFOAM-13/src/thermophysicalModels/specie/lnInclude/janafThermoI.H at line 117
    attempt to use janafThermo<EquationOfState> out of temperature range 298.15 -> 20000;  T = 278.746
--> FOAM Warning : 
    From function Foam::scalar Foam::janafThermo<EquationOfState>::limit(Foam::scalar) const [with EquationOfState = Foam::perfectGas<Foam::specie>; Foam::scalar = double]
    in file /home/student/OpenFOAM/student-13/run/OpenFOAM/OpenFOAM-13/src/thermophysicalModels/specie/lnInclude/janafThermoI.H at line 117
    attempt to use janafThermo<EquationOfState> out of temperature range 298.15 -> 20000;  T = 278.803
--> FOAM Warning : 
    From function Foam::scalar Foam::janafThermo<EquationOfState>::limit(Foam::scalar) const [with EquationOfState = Foam::perfectGas<Foam::specie>; Foam::scalar = double]
    in file /home/student/OpenFOAM/student-13/run/OpenFOAM/OpenFOAM-13/src/thermophysicalModels/specie/lnInclude/janafThermoI.H at line 117
    attempt to use janafThermo<EquationOfState> out of temperature range 298.15 -> 20000;  T = 278.746
--> FOAM Warning : 
    From function Foam::scalar Foam::janafThermo<EquationOfState>::limit(Foam::scalar) const [with EquationOfState = Foam::perfectGas<Foam::specie>; Foam::scalar = double]
    in file /home/student/OpenFOAM/student-13/run/OpenFOAM/OpenFOAM-13/src/thermophysicalModels/specie/lnInclude/janafThermoI.H at line 117
    attempt to use janafThermo<EquationOfState> out of temperature range 298.15 -> 20000;  T = 278.803
--> FOAM Warning : 
    From function Foam::scalar Foam::janafThermo<EquationOfState>::limit(Foam::scalar) const [with EquationOfState = Foam::perfectGas<Foam::specie>; Foam::scalar = double]
    in file /home/student/OpenFOAM/student-13/run/OpenFOAM/OpenFOAM-13/src/thermophysicalModels/specie/lnInclude/janafThermoI.H at line 117
    attempt to use janafThermo<EquationOfState> out of temperature range 298.15 -> 20000;  T = 278.746
--> FOAM Warning : 
    From function Foam::scalar Foam::janafThermo<EquationOfState>::limit(Foam::scalar) const [with EquationOfState = Foam::perfectGas<Foam::specie>; Foam::scalar = double]
    in file /home/student/OpenFOAM/student-13/run/OpenFOAM/OpenFOAM-13/src/thermophysicalModels/specie/lnInclude/janafThermoI.H at line 117
    attempt to use janafThermo<EquationOfState> out of temperature range 298.15 -> 20000;  T = 278.803
--> FOAM Warning : 
    From function Foam::scalar Foam::janafThermo<EquationOfState>::limit(Foam::scalar) const [with EquationOfState = Foam::perfectGas<Foam::specie>; Foam::scalar = double]
    in file /home/student/OpenFOAM/student-13/run/OpenFOAM/OpenFOAM-13/src/thermophysicalModels/specie/lnInclude/janafThermoI.H at line 117
    attempt to use janafThermo<EquationOfState> out of temperature range 298.15 -> 20000;  T = 278.746
--> FOAM Warning : 
    From function Foam::scalar Foam::janafThermo<EquationOfState>::limit(Foam::scalar) const [with EquationOfState = Foam::perfectGas<Foam::specie>; Foam::scalar = double]
    in file /home/student/OpenFOAM/student-13/run/OpenFOAM/OpenFOAM-13/src/thermophysicalModels/specie/lnInclude/janafThermoI.H at line 117
    attempt to use janafThermo<EquationOfState> out of temperature range 298.15 -> 20000;  T = 278.803
--> FOAM Warning : 
    From function Foam::scalar Foam::janafThermo<EquationOfState>::limit(Foam::scalar) const [with EquationOfState = Foam::perfectGas<Foam::specie>; Foam::scalar = double]
    in file /home/student/OpenFOAM/student-13/run/OpenFOAM/OpenFOAM-13/src/thermophysicalModels/specie/lnInclude/janafThermoI.H at line 117
    attempt to use janafThermo<EquationOfState> out of temperature range 298.15 -> 20000;  T = 278.746
--> FOAM Warning : 
    From function Foam::scalar Foam::janafThermo<EquationOfState>::limit(Foam::scalar) const [with EquationOfState = Foam::perfectGas<Foam::specie>; Foam::scalar = double]
    in file /home/student/OpenFOAM/student-13/run/OpenFOAM/OpenFOAM-13/src/thermophysicalModels/specie/lnInclude/janafThermoI.H at line 117
    attempt to use janafThermo<EquationOfState> out of temperature range 298.15 -> 20000;  T = 278.803
--> FOAM Warning : 
    From function Foam::scalar Foam::janafThermo<EquationOfState>::limit(Foam::scalar) const [with EquationOfState = Foam::perfectGas<Foam::specie>; Foam::scalar = double]
    in file /home/student/OpenFOAM/student-13/run/OpenFOAM/OpenFOAM-13/src/thermophysicalModels/specie/lnInclude/janafThermoI.H at line 117
    attempt to use janafThermo<EquationOfState> out of temperature range 298.15 -> 20000;  T = 278.746
--> FOAM Warning : 
    From function Foam::scalar Foam::janafThermo<EquationOfState>::limit(Foam::scalar) const [with EquationOfState = Foam::perfectGas<Foam::specie>; Foam::scalar = double]
    in file /home/student/OpenFOAM/student-13/run/OpenFOAM/OpenFOAM-13/src/thermophysicalModels/specie/lnInclude/janafThermoI.H at line 117
    attempt to use janafThermo<EquationOfState> out of temperature range 298.15 -> 20000;  T = 278.803
--> FOAM Warning : 
    From function Foam::scalar Foam::janafThermo<EquationOfState>::limit(Foam::scalar) const [with EquationOfState = Foam::perfectGas<Foam::specie>; Foam::scalar = double]
    in file /home/student/OpenFOAM/student-13/run/OpenFOAM/OpenFOAM-13/src/thermophysicalModels/specie/lnInclude/janafThermoI.H at line 117
    attempt to use janafThermo<EquationOfState> out of temperature range 298.15 -> 20000;  T = 278.746
--> FOAM Warning : 
    From function Foam::scalar Foam::janafThermo<EquationOfState>::limit(Foam::scalar) const [with EquationOfState = Foam::perfectGas<Foam::specie>; Foam::scalar = double]
    in file /home/student/OpenFOAM/student-13/run/OpenFOAM/OpenFOAM-13/src/thermophysicalModels/specie/lnInclude/janafThermoI.H at line 117
    attempt to use janafThermo<EquationOfState> out of temperature range 298.15 -> 20000;  T = 278.803
--> FOAM Warning : 
    From function Foam::scalar Foam::janafThermo<EquationOfState>::limit(Foam::scalar) const [with EquationOfState = Foam::perfectGas<Foam::specie>; Foam::scalar = double]
    in file /home/student/OpenFOAM/student-13/run/OpenFOAM/OpenFOAM-13/src/thermophysicalModels/specie/lnInclude/janafThermoI.H at line 117
    attempt to use janafThermo<EquationOfState> out of temperature range 298.15 -> 20000;  T = 278.746
--> FOAM Warning : 
    From function Foam::scalar Foam::janafThermo<EquationOfState>::limit(Foam::scalar) const [with EquationOfState = Foam::perfectGas<Foam::specie>; Foam::scalar = double]
    in file /home/student/OpenFOAM/student-13/run/OpenFOAM/OpenFOAM-13/src/thermophysicalModels/specie/lnInclude/janafThermoI.H at line 117
    attempt to use janafThermo<EquationOfState> out of temperature range 298.15 -> 20000;  T = 278.803
--> FOAM Warning : 
    From function Foam::scalar Foam::janafThermo<EquationOfState>::limit(Foam::scalar) const [with EquationOfState = Foam::perfectGas<Foam::specie>; Foam::scalar = double]
    in file /home/student/OpenFOAM/student-13/run/OpenFOAM/OpenFOAM-13/src/thermophysicalModels/specie/lnInclude/janafThermoI.H at line 117
    attempt to use janafThermo<EquationOfState> out of temperature range 298.15 -> 20000;  T = 278.746
--> FOAM Warning : 
    From function Foam::scalar Foam::janafThermo<EquationOfState>::limit(Foam::scalar) const [with EquationOfState = Foam::perfectGas<Foam::specie>; Foam::scalar = double]
    in file /home/student/OpenFOAM/student-13/run/OpenFOAM/OpenFOAM-13/src/thermophysicalModels/specie/lnInclude/janafThermoI.H at line 117
    attempt to use janafThermo<EquationOfState> out of temperature range 298.15 -> 20000;  T = 278.803
--> FOAM Warning : 
    From function Foam::scalar Foam::janafThermo<EquationOfState>::limit(Foam::scalar) const [with EquationOfState = Foam::perfectGas<Foam::specie>; Foam::scalar = double]
    in file /home/student/OpenFOAM/student-13/run/OpenFOAM/OpenFOAM-13/src/thermophysicalModels/specie/lnInclude/janafThermoI.H at line 117
    attempt to use janafThermo<EquationOfState> out of temperature range 298.15 -> 20000;  T = 278.746
--> FOAM Warning : 
    From function Foam::scalar Foam::janafThermo<EquationOfState>::limit(Foam::scalar) const [with EquationOfState = Foam::perfectGas<Foam::specie>; Foam::scalar = double]
    in file /home/student/OpenFOAM/student-13/run/OpenFOAM/OpenFOAM-13/src/thermophysicalModels/specie/lnInclude/janafThermoI.H at line 117
    attempt to use janafThermo<EquationOfState> out of temperature range 298.15 -> 20000;  T = 278.803
--> FOAM Warning : 
    From function Foam::scalar Foam::janafThermo<EquationOfState>::limit(Foam::scalar) const [with EquationOfState = Foam::perfectGas<Foam::specie>; Foam::scalar = double]
    in file /home/student/OpenFOAM/student-13/run/OpenFOAM/OpenFOAM-13/src/thermophysicalModels/specie/lnInclude/janafThermoI.H at line 117
    attempt to use janafThermo<EquationOfState> out of temperature range 298.15 -> 20000;  T = 278.746
--> FOAM Warning : 
    From function Foam::scalar Foam::janafThermo<EquationOfState>::limit(Foam::scalar) const [with EquationOfState = Foam::perfectGas<Foam::specie>; Foam::scalar = double]
    in file /home/student/OpenFOAM/student-13/run/OpenFOAM/OpenFOAM-13/src/thermophysicalModels/specie/lnInclude/janafThermoI.H at line 117
    attempt to use janafThermo<EquationOfState> out of temperature range 298.15 -> 20000;  T = 278.803
--> FOAM Warning : 
    From function Foam::scalar Foam::janafThermo<EquationOfState>::limit(Foam::scalar) const [with EquationOfState = Foam::perfectGas<Foam::specie>; Foam::scalar = double]
    in file /home/student/OpenFOAM/student-13/run/OpenFOAM/OpenFOAM-13/src/thermophysicalModels/specie/lnInclude/janafThermoI.H at line 117
    attempt to use janafThermo<EquationOfState> out of temperature range 298.15 -> 20000;  T = 278.746
--> FOAM Warning : 
    From function Foam::scalar Foam::janafThermo<EquationOfState>::limit(Foam::scalar) const [with EquationOfState = Foam::perfectGas<Foam::specie>; Foam::scalar = double]
    in file /home/student/OpenFOAM/student-13/run/OpenFOAM/OpenFOAM-13/src/thermophysicalModels/specie/lnInclude/janafThermoI.H at line 117
    attempt to use janafThermo<EquationOfState> out of temperature range 298.15 -> 20000;  T = 278.803
--> FOAM Warning : 
    From function Foam::scalar Foam::janafThermo<EquationOfState>::limit(Foam::scalar) const [with EquationOfState = Foam::perfectGas<Foam::specie>; Foam::scalar = double]
    in file /home/student/OpenFOAM/student-13/run/OpenFOAM/OpenFOAM-13/src/thermophysicalModels/specie/lnInclude/janafThermoI.H at line 117
    attempt to use janafThermo<EquationOfState> out of temperature range 298.15 -> 20000;  T = 278.746
--> FOAM Warning : 
    From function Foam::scalar Foam::janafThermo<EquationOfState>::limit(Foam::scalar) const [with EquationOfState = Foam::perfectGas<Foam::specie>; Foam::scalar = double]
    in file /home/student/OpenFOAM/student-13/run/OpenFOAM/OpenFOAM-13/src/thermophysicalModels/specie/lnInclude/janafThermoI.H at line 117
    attempt to use janafThermo<EquationOfState> out of temperature range 298.15 -> 20000;  T = 278.803
--> FOAM Warning : 
    From function Foam::scalar Foam::janafThermo<EquationOfState>::limit(Foam::scalar) const [with EquationOfState = Foam::perfectGas<Foam::specie>; Foam::scalar = double]
    in file /home/student/OpenFOAM/student-13/run/OpenFOAM/OpenFOAM-13/src/thermophysicalModels/specie/lnInclude/janafThermoI.H at line 117
    attempt to use janafThermo<EquationOfState> out of temperature range 298.15 -> 20000;  T = 278.746
--> FOAM Warning : 
    From function Foam::scalar Foam::janafThermo<EquationOfState>::limit(Foam::scalar) const [with EquationOfState = Foam::perfectGas<Foam::specie>; Foam::scalar = double]
    in file /home/student/OpenFOAM/student-13/run/OpenFOAM/OpenFOAM-13/src/thermophysicalModels/specie/lnInclude/janafThermoI.H at line 117
    attempt to use janafThermo<EquationOfState> out of temperature range 298.15 -> 20000;  T = 278.803
--> FOAM Warning : 
    From function Foam::scalar Foam::janafThermo<EquationOfState>::limit(Foam::scalar) const [with EquationOfState = Foam::perfectGas<Foam::specie>; Foam::scalar = double]
    in file /home/student/OpenFOAM/student-13/run/OpenFOAM/OpenFOAM-13/src/thermophysicalModels/specie/lnInclude/janafThermoI.H at line 117
    attempt to use janafThermo<EquationOfState> out of temperature range 298.15 -> 20000;  T = 278.746
--> FOAM Warning : 
    From function Foam::scalar Foam::janafThermo<EquationOfState>::limit(Foam::scalar) const [with EquationOfState = Foam::perfectGas<Foam::specie>; Foam::scalar = double]
    in file /home/student/OpenFOAM/student-13/run/OpenFOAM/OpenFOAM-13/src/thermophysicalModels/specie/lnInclude/janafThermoI.H at line 117
    attempt to use janafThermo<EquationOfState> out of temperature range 298.15 -> 20000;  T = 278.803
--> FOAM Warning : 
    From function Foam::scalar Foam::janafThermo<EquationOfState>::limit(Foam::scalar) const [with EquationOfState = Foam::perfectGas<Foam::specie>; Foam::scalar = double]
    in file /home/student/OpenFOAM/student-13/run/OpenFOAM/OpenFOAM-13/src/thermophysicalModels/specie/lnInclude/janafThermoI.H at line 117
    attempt to use janafThermo<EquationOfState> out of temperature range 298.15 -> 20000;  T = 278.746
--> FOAM Warning : 
    From function Foam::scalar Foam::janafThermo<EquationOfState>::limit(Foam::scalar) const [with EquationOfState = Foam::perfectGas<Foam::specie>; Foam::scalar = double]
    in file /home/student/OpenFOAM/student-13/run/OpenFOAM/OpenFOAM-13/src/thermophysicalModels/specie/lnInclude/janafThermoI.H at line 117
    attempt to use janafThermo<EquationOfState> out of temperature range 298.15 -> 20000;  T = 278.803
--> FOAM Warning : 
    From function Foam::scalar Foam::janafThermo<EquationOfState>::limit(Foam::scalar) const [with EquationOfState = Foam::perfectGas<Foam::specie>; Foam::scalar = double]
    in file /home/student/OpenFOAM/student-13/run/OpenFOAM/OpenFOAM-13/src/thermophysicalModels/specie/lnInclude/janafThermoI.H at line 117
    attempt to use janafThermo<EquationOfState> out of temperature range 298.15 -> 20000;  T = 278.746
--> FOAM Warning : 
    From function Foam::scalar Foam::janafThermo<EquationOfState>::limit(Foam::scalar) const [with EquationOfState = Foam::perfectGas<Foam::specie>; Foam::scalar = double]
    in file /home/student/OpenFOAM/student-13/run/OpenFOAM/OpenFOAM-13/src/thermophysicalModels/specie/lnInclude/janafThermoI.H at line 117
    attempt to use janafThermo<EquationOfState> out of temperature range 298.15 -> 20000;  T = 278.803
--> FOAM Warning : 
    From function Foam::scalar Foam::janafThermo<EquationOfState>::limit(Foam::scalar) const [with EquationOfState = Foam::perfectGas<Foam::specie>; Foam::scalar = double]
    in file /home/student/OpenFOAM/student-13/run/OpenFOAM/OpenFOAM-13/src/thermophysicalModels/specie/lnInclude/janafThermoI.H at line 117
    attempt to use janafThermo<EquationOfState> out of temperature range 298.15 -> 20000;  T = 278.746
--> FOAM Warning : 
    From function Foam::scalar Foam::janafThermo<EquationOfState>::limit(Foam::scalar) const [with EquationOfState = Foam::perfectGas<Foam::specie>; Foam::scalar = double]
    in file /home/student/OpenFOAM/student-13/run/OpenFOAM/OpenFOAM-13/src/thermophysicalModels/specie/lnInclude/janafThermoI.H at line 117
    attempt to use janafThermo<EquationOfState> out of temperature range 298.15 -> 20000;  T = 278.803
--> FOAM Warning : 
    From function Foam::scalar Foam::janafThermo<EquationOfState>::limit(Foam::scalar) const [with EquationOfState = Foam::perfectGas<Foam::specie>; Foam::scalar = double]
    in file /home/student/OpenFOAM/student-13/run/OpenFOAM/OpenFOAM-13/src/thermophysicalModels/specie/lnInclude/janafThermoI.H at line 117
    attempt to use janafThermo<EquationOfState> out of temperature range 298.15 -> 20000;  T = 278.746
--> FOAM Warning : 
    From function Foam::scalar Foam::janafThermo<EquationOfState>::limit(Foam::scalar) const [with EquationOfState = Foam::perfectGas<Foam::specie>; Foam::scalar = double]
    in file /home/student/OpenFOAM/student-13/run/OpenFOAM/OpenFOAM-13/src/thermophysicalModels/specie/lnInclude/janafThermoI.H at line 117
    attempt to use janafThermo<EquationOfState> out of temperature range 298.15 -> 20000;  T = 278.803
--> FOAM Warning : 
    From function Foam::scalar Foam::janafThermo<EquationOfState>::limit(Foam::scalar) const [with EquationOfState = Foam::perfectGas<Foam::specie>; Foam::scalar = double]
    in file /home/student/OpenFOAM/student-13/run/OpenFOAM/OpenFOAM-13/src/thermophysicalModels/specie/lnInclude/janafThermoI.H at line 117
    attempt to use janafThermo<EquationOfState> out of temperature range 298.15 -> 20000;  T = 278.746
--> FOAM Warning : 
    From function Foam::scalar Foam::janafThermo<EquationOfState>::limit(Foam::scalar) const [with EquationOfState = Foam::perfectGas<Foam::specie>; Foam::scalar = double]
    in file /home/student/OpenFOAM/student-13/run/OpenFOAM/OpenFOAM-13/src/thermophysicalModels/specie/lnInclude/janafThermoI.H at line 117
    attempt to use janafThermo<EquationOfState> out of temperature range 298.15 -> 20000;  T = 278.803
--> FOAM Warning : 
    From function Foam::scalar Foam::janafThermo<EquationOfState>::limit(Foam::scalar) const [with EquationOfState = Foam::perfectGas<Foam::specie>; Foam::scalar = double]
    in file /home/student/OpenFOAM/student-13/run/OpenFOAM/OpenFOAM-13/src/thermophysicalModels/specie/lnInclude/janafThermoI.H at line 117
    attempt to use janafThermo<EquationOfState> out of temperature range 298.15 -> 20000;  T = 278.746
--> FOAM Warning : 
    From function Foam::scalar Foam::janafThermo<EquationOfState>::limit(Foam::scalar) const [with EquationOfState = Foam::perfectGas<Foam::specie>; Foam::scalar = double]
    in file /home/student/OpenFOAM/student-13/run/OpenFOAM/OpenFOAM-13/src/thermophysicalModels/specie/lnInclude/janafThermoI.H at line 117
    attempt to use janafThermo<EquationOfState> out of temperature range 298.15 -> 20000;  T = 278.803
--> FOAM Warning : 
    From function Foam::scalar Foam::janafThermo<EquationOfState>::limit(Foam::scalar) const [with EquationOfState = Foam::perfectGas<Foam::specie>; Foam::scalar = double]
    in file /home/student/OpenFOAM/student-13/run/OpenFOAM/OpenFOAM-13/src/thermophysicalModels/specie/lnInclude/janafThermoI.H at line 117
    attempt to use janafThermo<EquationOfState> out of temperature range 298.15 -> 20000;  T = 278.746
--> FOAM Warning : 
    From function Foam::scalar Foam::janafThermo<EquationOfState>::limit(Foam::scalar) const [with EquationOfState = Foam::perfectGas<Foam::specie>; Foam::scalar = double]
    in file /home/student/OpenFOAM/student-13/run/OpenFOAM/OpenFOAM-13/src/thermophysicalModels/specie/lnInclude/janafThermoI.H at line 117
    attempt to use janafThermo<EquationOfState> out of temperature range 298.15 -> 20000;  T = 278.803
--> FOAM Warning : 
    From function Foam::scalar Foam::janafThermo<EquationOfState>::limit(Foam::scalar) const [with EquationOfState = Foam::perfectGas<Foam::specie>; Foam::scalar = double]
    in file /home/student/OpenFOAM/student-13/run/OpenFOAM/OpenFOAM-13/src/thermophysicalModels/specie/lnInclude/janafThermoI.H at line 117
    attempt to use janafThermo<EquationOfState> out of temperature range 298.15 -> 20000;  T = 278.746
--> FOAM Warning : 
    From function Foam::scalar Foam::janafThermo<EquationOfState>::limit(Foam::scalar) const [with EquationOfState = Foam::perfectGas<Foam::specie>; Foam::scalar = double]
    in file /home/student/OpenFOAM/student-13/run/OpenFOAM/OpenFOAM-13/src/thermophysicalModels/specie/lnInclude/janafThermoI.H at line 117
    attempt to use janafThermo<EquationOfState> out of temperature range 298.15 -> 20000;  T = 278.803
--> FOAM Warning : 
    From function Foam::scalar Foam::janafThermo<EquationOfState>::limit(Foam::scalar) const [with EquationOfState = Foam::perfectGas<Foam::specie>; Foam::scalar = double]
    in file /home/student/OpenFOAM/student-13/run/OpenFOAM/OpenFOAM-13/src/thermophysicalModels/specie/lnInclude/janafThermoI.H at line 117
    attempt to use janafThermo<EquationOfState> out of temperature range 298.15 -> 20000;  T = 278.746
--> FOAM Warning : 
    From function Foam::scalar Foam::janafThermo<EquationOfState>::limit(Foam::scalar) const [with EquationOfState = Foam::perfectGas<Foam::specie>; Foam::scalar = double]
    in file /home/student/OpenFOAM/student-13/run/OpenFOAM/OpenFOAM-13/src/thermophysicalModels/specie/lnInclude/janafThermoI.H at line 117
    attempt to use janafThermo<EquationOfState> out of temperature range 298.15 -> 20000;  T = 278.803
--> FOAM Warning : 
    From function Foam::scalar Foam::janafThermo<EquationOfState>::limit(Foam::scalar) const [with EquationOfState = Foam::perfectGas<Foam::specie>; Foam::scalar = double]
    in file /home/student/OpenFOAM/student-13/run/OpenFOAM/OpenFOAM-13/src/thermophysicalModels/specie/lnInclude/janafThermoI.H at line 117
    attempt to use janafThermo<EquationOfState> out of temperature range 298.15 -> 20000;  T = 278.746
--> FOAM Warning : 
    From function Foam::scalar Foam::janafThermo<EquationOfState>::limit(Foam::scalar) const [with EquationOfState = Foam::perfectGas<Foam::specie>; Foam::scalar = double]
    in file /home/student/OpenFOAM/student-13/run/OpenFOAM/OpenFOAM-13/src/thermophysicalModels/specie/lnInclude/janafThermoI.H at line 117
    attempt to use janafThermo<EquationOfState> out of temperature range 298.15 -> 20000;  T = 278.803
--> FOAM Warning : 
    From function Foam::scalar Foam::janafThermo<EquationOfState>::limit(Foam::scalar) const [with EquationOfState = Foam::perfectGas<Foam::specie>; Foam::scalar = double]
    in file /home/student/OpenFOAM/student-13/run/OpenFOAM/OpenFOAM-13/src/thermophysicalModels/specie/lnInclude/janafThermoI.H at line 117
    attempt to use janafThermo<EquationOfState> out of temperature range 298.15 -> 20000;  T = 278.746
--> FOAM Warning : 
    From function Foam::scalar Foam::janafThermo<EquationOfState>::limit(Foam::scalar) const [with EquationOfState = Foam::perfectGas<Foam::specie>; Foam::scalar = double]
    in file /home/student/OpenFOAM/student-13/run/OpenFOAM/OpenFOAM-13/src/thermophysicalModels/specie/lnInclude/janafThermoI.H at line 117
    attempt to use janafThermo<EquationOfState> out of temperature range 298.15 -> 20000;  T = 278.803
--> FOAM Warning : 
    From function Foam::scalar Foam::janafThermo<EquationOfState>::limit(Foam::scalar) const [with EquationOfState = Foam::perfectGas<Foam::specie>; Foam::scalar = double]
    in file /home/student/OpenFOAM/student-13/run/OpenFOAM/OpenFOAM-13/src/thermophysicalModels/specie/lnInclude/janafThermoI.H at line 117
    attempt to use janafThermo<EquationOfState> out of temperature range 298.15 -> 20000;  T = 278.746
--> FOAM Warning : 
    From function Foam::scalar Foam::janafThermo<EquationOfState>::limit(Foam::scalar) const [with EquationOfState = Foam::perfectGas<Foam::specie>; Foam::scalar = double]
    in file /home/student/OpenFOAM/student-13/run/OpenFOAM/OpenFOAM-13/src/thermophysicalModels/specie/lnInclude/janafThermoI.H at line 117
    attempt to use janafThermo<EquationOfState> out of temperature range 298.15 -> 20000;  T = 278.803
--> FOAM Warning : 
    From function Foam::scalar Foam::janafThermo<EquationOfState>::limit(Foam::scalar) const [with EquationOfState = Foam::perfectGas<Foam::specie>; Foam::scalar = double]
    in file /home/student/OpenFOAM/student-13/run/OpenFOAM/OpenFOAM-13/src/thermophysicalModels/specie/lnInclude/janafThermoI.H at line 117
    attempt to use janafThermo<EquationOfState> out of temperature range 298.15 -> 20000;  T = 278.746
--> FOAM Warning : 
    From function Foam::scalar Foam::janafThermo<EquationOfState>::limit(Foam::scalar) const [with EquationOfState = Foam::perfectGas<Foam::specie>; Foam::scalar = double]
    in file /home/student/OpenFOAM/student-13/run/OpenFOAM/OpenFOAM-13/src/thermophysicalModels/specie/lnInclude/janafThermoI.H at line 117
    attempt to use janafThermo<EquationOfState> out of temperature range 298.15 -> 20000;  T = 278.803
--> FOAM Warning : 
    From function Foam::scalar Foam::janafThermo<EquationOfState>::limit(Foam::scalar) const [with EquationOfState = Foam::perfectGas<Foam::specie>; Foam::scalar = double]
    in file /home/student/OpenFOAM/student-13/run/OpenFOAM/OpenFOAM-13/src/thermophysicalModels/specie/lnInclude/janafThermoI.H at line 117
    attempt to use janafThermo<EquationOfState> out of temperature range 298.15 -> 20000;  T = 278.746
--> FOAM Warning : 
    From function Foam::scalar Foam::janafThermo<EquationOfState>::limit(Foam::scalar) const [with EquationOfState = Foam::perfectGas<Foam::specie>; Foam::scalar = double]
    in file /home/student/OpenFOAM/student-13/run/OpenFOAM/OpenFOAM-13/src/thermophysicalModels/specie/lnInclude/janafThermoI.H at line 117
    attempt to use janafThermo<EquationOfState> out of temperature range 298.15 -> 20000;  T = 278.803
--> FOAM Warning : 
    From function Foam::scalar Foam::janafThermo<EquationOfState>::limit(Foam::scalar) const [with EquationOfState = Foam::perfectGas<Foam::specie>; Foam::scalar = double]
    in file /home/student/OpenFOAM/student-13/run/OpenFOAM/OpenFOAM-13/src/thermophysicalModels/specie/lnInclude/janafThermoI.H at line 117
    attempt to use janafThermo<EquationOfState> out of temperature range 298.15 -> 20000;  T = 278.746
--> FOAM Warning : 
    From function Foam::scalar Foam::janafThermo<EquationOfState>::limit(Foam::scalar) const [with EquationOfState = Foam::perfectGas<Foam::specie>; Foam::scalar = double]
    in file /home/student/OpenFOAM/student-13/run/OpenFOAM/OpenFOAM-13/src/thermophysicalModels/specie/lnInclude/janafThermoI.H at line 117
    attempt to use janafThermo<EquationOfState> out of temperature range 298.15 -> 20000;  T = 278.803
--> FOAM Warning : 
    From function Foam::scalar Foam::janafThermo<EquationOfState>::limit(Foam::scalar) const [with EquationOfState = Foam::perfectGas<Foam::specie>; Foam::scalar = double]
    in file /home/student/OpenFOAM/student-13/run/OpenFOAM/OpenFOAM-13/src/thermophysicalModels/specie/lnInclude/janafThermoI.H at line 117
    attempt to use janafThermo<EquationOfState> out of temperature range 298.15 -> 20000;  T = 278.746
--> FOAM Warning : 
    From function Foam::scalar Foam::janafThermo<EquationOfState>::limit(Foam::scalar) const [with EquationOfState = Foam::perfectGas<Foam::specie>; Foam::scalar = double]
    in file /home/student/OpenFOAM/student-13/run/OpenFOAM/OpenFOAM-13/src/thermophysicalModels/specie/lnInclude/janafThermoI.H at line 117
    attempt to use janafThermo<EquationOfState> out of temperature range 298.15 -> 20000;  T = 278.803
--> FOAM Warning : 
    From function Foam::scalar Foam::janafThermo<EquationOfState>::limit(Foam::scalar) const [with EquationOfState = Foam::perfectGas<Foam::specie>; Foam::scalar = double]
    in file /home/student/OpenFOAM/student-13/run/OpenFOAM/OpenFOAM-13/src/thermophysicalModels/specie/lnInclude/janafThermoI.H at line 117
    attempt to use janafThermo<EquationOfState> out of temperature range 298.15 -> 20000;  T = 278.746
--> FOAM Warning : 
    From function Foam::scalar Foam::janafThermo<EquationOfState>::limit(Foam::scalar) const [with EquationOfState = Foam::perfectGas<Foam::specie>; Foam::scalar = double]
    in file /home/student/OpenFOAM/student-13/run/OpenFOAM/OpenFOAM-13/src/thermophysicalModels/specie/lnInclude/janafThermoI.H at line 117
    attempt to use janafThermo<EquationOfState> out of temperature range 298.15 -> 20000;  T = 278.803
--> FOAM Warning : 
    From function Foam::scalar Foam::janafThermo<EquationOfState>::limit(Foam::scalar) const [with EquationOfState = Foam::perfectGas<Foam::specie>; Foam::scalar = double]
    in file /home/student/OpenFOAM/student-13/run/OpenFOAM/OpenFOAM-13/src/thermophysicalModels/specie/lnInclude/janafThermoI.H at line 117
    attempt to use janafThermo<EquationOfState> out of temperature range 298.15 -> 20000;  T = 278.746
--> FOAM Warning : 
    From function Foam::scalar Foam::janafThermo<EquationOfState>::limit(Foam::scalar) const [with EquationOfState = Foam::perfectGas<Foam::specie>; Foam::scalar = double]
    in file /home/student/OpenFOAM/student-13/run/OpenFOAM/OpenFOAM-13/src/thermophysicalModels/specie/lnInclude/janafThermoI.H at line 117
    attempt to use janafThermo<EquationOfState> out of temperature range 298.15 -> 20000;  T = 278.803
--> FOAM Warning : 
    From function Foam::scalar Foam::janafThermo<EquationOfState>::limit(Foam::scalar) const [with EquationOfState = Foam::perfectGas<Foam::specie>; Foam::scalar = double]
    in file /home/student/OpenFOAM/student-13/run/OpenFOAM/OpenFOAM-13/src/thermophysicalModels/specie/lnInclude/janafThermoI.H at line 117
    attempt to use janafThermo<EquationOfState> out of temperature range 298.15 -> 20000;  T = 278.746
--> FOAM Warning : 
    From function Foam::scalar Foam::janafThermo<EquationOfState>::limit(Foam::scalar) const [with EquationOfState = Foam::perfectGas<Foam::specie>; Foam::scalar = double]
    in file /home/student/OpenFOAM/student-13/run/OpenFOAM/OpenFOAM-13/src/thermophysicalModels/specie/lnInclude/janafThermoI.H at line 117
    attempt to use janafThermo<EquationOfState> out of temperature range 298.15 -> 20000;  T = 278.803
--> FOAM Warning : 
    From function Foam::scalar Foam::janafThermo<EquationOfState>::limit(Foam::scalar) const [with EquationOfState = Foam::perfectGas<Foam::specie>; Foam::scalar = double]
    in file /home/student/OpenFOAM/student-13/run/OpenFOAM/OpenFOAM-13/src/thermophysicalModels/specie/lnInclude/janafThermoI.H at line 117
    attempt to use janafThermo<EquationOfState> out of temperature range 298.15 -> 20000;  T = 278.746
--> FOAM Warning : 
    From function Foam::scalar Foam::janafThermo<EquationOfState>::limit(Foam::scalar) const [with EquationOfState = Foam::perfectGas<Foam::specie>; Foam::scalar = double]
    in file /home/student/OpenFOAM/student-13/run/OpenFOAM/OpenFOAM-13/src/thermophysicalModels/specie/lnInclude/janafThermoI.H at line 117
    attempt to use janafThermo<EquationOfState> out of temperature range 298.15 -> 20000;  T = 278.803
--> FOAM Warning : 
    From function Foam::scalar Foam::janafThermo<EquationOfState>::limit(Foam::scalar) const [with EquationOfState = Foam::perfectGas<Foam::specie>; Foam::scalar = double]
    in file /home/student/OpenFOAM/student-13/run/OpenFOAM/OpenFOAM-13/src/thermophysicalModels/specie/lnInclude/janafThermoI.H at line 117
    attempt to use janafThermo<EquationOfState> out of temperature range 298.15 -> 20000;  T = 278.746
--> FOAM Warning : 
    From function Foam::scalar Foam::janafThermo<EquationOfState>::limit(Foam::scalar) const [with EquationOfState = Foam::perfectGas<Foam::specie>; Foam::scalar = double]
    in file /home/student/OpenFOAM/student-13/run/OpenFOAM/OpenFOAM-13/src/thermophysicalModels/specie/lnInclude/janafThermoI.H at line 117
    attempt to use janafThermo<EquationOfState> out of temperature range 298.15 -> 20000;  T = 278.803
--> FOAM Warning : 
    From function Foam::scalar Foam::janafThermo<EquationOfState>::limit(Foam::scalar) const [with EquationOfState = Foam::perfectGas<Foam::specie>; Foam::scalar = double]
    in file /home/student/OpenFOAM/student-13/run/OpenFOAM/OpenFOAM-13/src/thermophysicalModels/specie/lnInclude/janafThermoI.H at line 117
    attempt to use janafThermo<EquationOfState> out of temperature range 298.15 -> 20000;  T = 278.746
--> FOAM Warning : 
    From function Foam::scalar Foam::janafThermo<EquationOfState>::limit(Foam::scalar) const [with EquationOfState = Foam::perfectGas<Foam::specie>; Foam::scalar = double]
    in file /home/student/OpenFOAM/student-13/run/OpenFOAM/OpenFOAM-13/src/thermophysicalModels/specie/lnInclude/janafThermoI.H at line 117
    attempt to use janafThermo<EquationOfState> out of temperature range 298.15 -> 20000;  T = 278.803
--> FOAM Warning : 
    From function Foam::scalar Foam::janafThermo<EquationOfState>::limit(Foam::scalar) const [with EquationOfState = Foam::perfectGas<Foam::specie>; Foam::scalar = double]
    in file /home/student/OpenFOAM/student-13/run/OpenFOAM/OpenFOAM-13/src/thermophysicalModels/specie/lnInclude/janafThermoI.H at line 117
    attempt to use janafThermo<EquationOfState> out of temperature range 298.15 -> 20000;  T = 278.746
--> FOAM Warning : 
    From function Foam::scalar Foam::janafThermo<EquationOfState>::limit(Foam::scalar) const [with EquationOfState = Foam::perfectGas<Foam::specie>; Foam::scalar = double]
    in file /home/student/OpenFOAM/student-13/run/OpenFOAM/OpenFOAM-13/src/thermophysicalModels/specie/lnInclude/janafThermoI.H at line 117
    attempt to use janafThermo<EquationOfState> out of temperature range 298.15 -> 20000;  T = 278.803
--> FOAM Warning : 
    From function Foam::scalar Foam::janafThermo<EquationOfState>::limit(Foam::scalar) const [with EquationOfState = Foam::perfectGas<Foam::specie>; Foam::scalar = double]
    in file /home/student/OpenFOAM/student-13/run/OpenFOAM/OpenFOAM-13/src/thermophysicalModels/specie/lnInclude/janafThermoI.H at line 117
    attempt to use janafThermo<EquationOfState> out of temperature range 298.15 -> 20000;  T = 278.746
--> FOAM Warning : 
    From function Foam::scalar Foam::janafThermo<EquationOfState>::limit(Foam::scalar) const [with EquationOfState = Foam::perfectGas<Foam::specie>; Foam::scalar = double]
    in file /home/student/OpenFOAM/student-13/run/OpenFOAM/OpenFOAM-13/src/thermophysicalModels/specie/lnInclude/janafThermoI.H at line 117
    attempt to use janafThermo<EquationOfState> out of temperature range 298.15 -> 20000;  T = 278.803
--> FOAM Warning : 
    From function Foam::scalar Foam::janafThermo<EquationOfState>::limit(Foam::scalar) const [with EquationOfState = Foam::perfectGas<Foam::specie>; Foam::scalar = double]
    in file /home/student/OpenFOAM/student-13/run/OpenFOAM/OpenFOAM-13/src/thermophysicalModels/specie/lnInclude/janafThermoI.H at line 117
    attempt to use janafThermo<EquationOfState> out of temperature range 298.15 -> 20000;  T = 278.746
--> FOAM Warning : 
    From function Foam::scalar Foam::janafThermo<EquationOfState>::limit(Foam::scalar) const [with EquationOfState = Foam::perfectGas<Foam::specie>; Foam::scalar = double]
    in file /home/student/OpenFOAM/student-13/run/OpenFOAM/OpenFOAM-13/src/thermophysicalModels/specie/lnInclude/janafThermoI.H at line 117
    attempt to use janafThermo<EquationOfState> out of temperature range 298.15 -> 20000;  T = 278.803
--> FOAM Warning : 
    From function Foam::scalar Foam::janafThermo<EquationOfState>::limit(Foam::scalar) const [with EquationOfState = Foam::perfectGas<Foam::specie>; Foam::scalar = double]
    in file /home/student/OpenFOAM/student-13/run/OpenFOAM/OpenFOAM-13/src/thermophysicalModels/specie/lnInclude/janafThermoI.H at line 117
    attempt to use janafThermo<EquationOfState> out of temperature range 298.15 -> 20000;  T = 278.746
--> FOAM Warning : 
    From function Foam::scalar Foam::janafThermo<EquationOfState>::limit(Foam::scalar) const [with EquationOfState = Foam::perfectGas<Foam::specie>; Foam::scalar = double]
    in file /home/student/OpenFOAM/student-13/run/OpenFOAM/OpenFOAM-13/src/thermophysicalModels/specie/lnInclude/janafThermoI.H at line 117
    attempt to use janafThermo<EquationOfState> out of temperature range 298.15 -> 20000;  T = 278.803
--> FOAM Warning : 
    From function Foam::scalar Foam::janafThermo<EquationOfState>::limit(Foam::scalar) const [with EquationOfState = Foam::perfectGas<Foam::specie>; Foam::scalar = double]
    in file /home/student/OpenFOAM/student-13/run/OpenFOAM/OpenFOAM-13/src/thermophysicalModels/specie/lnInclude/janafThermoI.H at line 117
    attempt to use janafThermo<EquationOfState> out of temperature range 298.15 -> 20000;  T = 278.746
--> FOAM Warning : 
    From function Foam::scalar Foam::janafThermo<EquationOfState>::limit(Foam::scalar) const [with EquationOfState = Foam::perfectGas<Foam::specie>; Foam::scalar = double]
    in file /home/student/OpenFOAM/student-13/run/OpenFOAM/OpenFOAM-13/src/thermophysicalModels/specie/lnInclude/janafThermoI.H at line 117
    attempt to use janafThermo<EquationOfState> out of temperature range 298.15 -> 20000;  T = 278.803
--> FOAM Warning : 
    From function Foam::scalar Foam::janafThermo<EquationOfState>::limit(Foam::scalar) const [with EquationOfState = Foam::perfectGas<Foam::specie>; Foam::scalar = double]
    in file /home/student/OpenFOAM/student-13/run/OpenFOAM/OpenFOAM-13/src/thermophysicalModels/specie/lnInclude/janafThermoI.H at line 117
    attempt to use janafThermo<EquationOfState> out of temperature range 298.15 -> 20000;  T = 278.746
--> FOAM Warning : 
    From function Foam::scalar Foam::janafThermo<EquationOfState>::limit(Foam::scalar) const [with EquationOfState = Foam::perfectGas<Foam::specie>; Foam::scalar = double]
    in file /home/student/OpenFOAM/student-13/run/OpenFOAM/OpenFOAM-13/src/thermophysicalModels/specie/lnInclude/janafThermoI.H at line 117
    attempt to use janafThermo<EquationOfState> out of temperature range 298.15 -> 20000;  T = 278.803
--> FOAM Warning : 
    From function Foam::scalar Foam::janafThermo<EquationOfState>::limit(Foam::scalar) const [with EquationOfState = Foam::perfectGas<Foam::specie>; Foam::scalar = double]
    in file /home/student/OpenFOAM/student-13/run/OpenFOAM/OpenFOAM-13/src/thermophysicalModels/specie/lnInclude/janafThermoI.H at line 117
    attempt to use janafThermo<EquationOfState> out of temperature range 298.15 -> 20000;  T = 278.746
--> FOAM Warning : 
    From function Foam::scalar Foam::janafThermo<EquationOfState>::limit(Foam::scalar) const [with EquationOfState = Foam::perfectGas<Foam::specie>; Foam::scalar = double]
    in file /home/student/OpenFOAM/student-13/run/OpenFOAM/OpenFOAM-13/src/thermophysicalModels/specie/lnInclude/janafThermoI.H at line 117
    attempt to use janafThermo<EquationOfState> out of temperature range 298.15 -> 20000;  T = 278.803
--> FOAM Warning : 
    From function Foam::scalar Foam::janafThermo<EquationOfState>::limit(Foam::scalar) const [with EquationOfState = Foam::perfectGas<Foam::specie>; Foam::scalar = double]
    in file /home/student/OpenFOAM/student-13/run/OpenFOAM/OpenFOAM-13/src/thermophysicalModels/specie/lnInclude/janafThermoI.H at line 117
    attempt to use janafThermo<EquationOfState> out of temperature range 298.15 -> 20000;  T = 278.746
--> FOAM Warning : 
    From function Foam::scalar Foam::janafThermo<EquationOfState>::limit(Foam::scalar) const [with EquationOfState = Foam::perfectGas<Foam::specie>; Foam::scalar = double]
    in file /home/student/OpenFOAM/student-13/run/OpenFOAM/OpenFOAM-13/src/thermophysicalModels/specie/lnInclude/janafThermoI.H at line 117
    attempt to use janafThermo<EquationOfState> out of temperature range 298.15 -> 20000;  T = 278.803
--> FOAM Warning : 
    From function Foam::scalar Foam::janafThermo<EquationOfState>::limit(Foam::scalar) const [with EquationOfState = Foam::perfectGas<Foam::specie>; Foam::scalar = double]
    in file /home/student/OpenFOAM/student-13/run/OpenFOAM/OpenFOAM-13/src/thermophysicalModels/specie/lnInclude/janafThermoI.H at line 117
    attempt to use janafThermo<EquationOfState> out of temperature range 298.15 -> 20000;  T = 278.746
--> FOAM Warning : 
    From function Foam::scalar Foam::janafThermo<EquationOfState>::limit(Foam::scalar) const [with EquationOfState = Foam::perfectGas<Foam::specie>; Foam::scalar = double]
    in file /home/student/OpenFOAM/student-13/run/OpenFOAM/OpenFOAM-13/src/thermophysicalModels/specie/lnInclude/janafThermoI.H at line 117
    attempt to use janafThermo<EquationOfState> out of temperature range 298.15 -> 20000;  T = 278.803
--> FOAM Warning : 
    From function Foam::scalar Foam::janafThermo<EquationOfState>::limit(Foam::scalar) const [with EquationOfState = Foam::perfectGas<Foam::specie>; Foam::scalar = double]
    in file /home/student/OpenFOAM/student-13/run/OpenFOAM/OpenFOAM-13/src/thermophysicalModels/specie/lnInclude/janafThermoI.H at line 117
    attempt to use janafThermo<EquationOfState> out of temperature range 298.15 -> 20000;  T = 278.746
--> FOAM Warning : 
    From function Foam::scalar Foam::janafThermo<EquationOfState>::limit(Foam::scalar) const [with EquationOfState = Foam::perfectGas<Foam::specie>; Foam::scalar = double]
    in file /home/student/OpenFOAM/student-13/run/OpenFOAM/OpenFOAM-13/src/thermophysicalModels/specie/lnInclude/janafThermoI.H at line 117
    attempt to use janafThermo<EquationOfState> out of temperature range 298.15 -> 20000;  T = 278.803
--> FOAM Warning : 
    From function Foam::scalar Foam::janafThermo<EquationOfState>::limit(Foam::scalar) const [with EquationOfState = Foam::perfectGas<Foam::specie>; Foam::scalar = double]
    in file /home/student/OpenFOAM/student-13/run/OpenFOAM/OpenFOAM-13/src/thermophysicalModels/specie/lnInclude/janafThermoI.H at line 117
    attempt to use janafThermo<EquationOfState> out of temperature range 298.15 -> 20000;  T = 278.746
--> FOAM Warning : 
    From function Foam::scalar Foam::janafThermo<EquationOfState>::limit(Foam::scalar) const [with EquationOfState = Foam::perfectGas<Foam::specie>; Foam::scalar = double]
    in file /home/student/OpenFOAM/student-13/run/OpenFOAM/OpenFOAM-13/src/thermophysicalModels/specie/lnInclude/janafThermoI.H at line 117
    attempt to use janafThermo<EquationOfState> out of temperature range 298.15 -> 20000;  T = 278.803
--> FOAM Warning : 
    From function Foam::scalar Foam::janafThermo<EquationOfState>::limit(Foam::scalar) const [with EquationOfState = Foam::perfectGas<Foam::specie>; Foam::scalar = double]
    in file /home/student/OpenFOAM/student-13/run/OpenFOAM/OpenFOAM-13/src/thermophysicalModels/specie/lnInclude/janafThermoI.H at line 117
    attempt to use janafThermo<EquationOfState> out of temperature range 298.15 -> 20000;  T = 278.746
--> FOAM Warning : 
    From function Foam::scalar Foam::janafThermo<EquationOfState>::limit(Foam::scalar) const [with EquationOfState = Foam::perfectGas<Foam::specie>; Foam::scalar = double]
    in file /home/student/OpenFOAM/student-13/run/OpenFOAM/OpenFOAM-13/src/thermophysicalModels/specie/lnInclude/janafThermoI.H at line 117
    attempt to use janafThermo<EquationOfState> out of temperature range 298.15 -> 20000;  T = 278.803
--> FOAM Warning : 
    From function Foam::scalar Foam::janafThermo<EquationOfState>::limit(Foam::scalar) const [with EquationOfState = Foam::perfectGas<Foam::specie>; Foam::scalar = double]
    in file /home/student/OpenFOAM/student-13/run/OpenFOAM/OpenFOAM-13/src/thermophysicalModels/specie/lnInclude/janafThermoI.H at line 117
    attempt to use janafThermo<EquationOfState> out of temperature range 298.15 -> 20000;  T = 278.746
--> FOAM Warning : 
    From function Foam::scalar Foam::janafThermo<EquationOfState>::limit(Foam::scalar) const [with EquationOfState = Foam::perfectGas<Foam::specie>; Foam::scalar = double]
    in file /home/student/OpenFOAM/student-13/run/OpenFOAM/OpenFOAM-13/src/thermophysicalModels/specie/lnInclude/janafThermoI.H at line 117
    attempt to use janafThermo<EquationOfState> out of temperature range 298.15 -> 20000;  T = 278.803
--> FOAM Warning : 
    From function Foam::scalar Foam::janafThermo<EquationOfState>::limit(Foam::scalar) const [with EquationOfState = Foam::perfectGas<Foam::specie>; Foam::scalar = double]
    in file /home/student/OpenFOAM/student-13/run/OpenFOAM/OpenFOAM-13/src/thermophysicalModels/specie/lnInclude/janafThermoI.H at line 117
    attempt to use janafThermo<EquationOfState> out of temperature range 298.15 -> 20000;  T = 278.746
--> FOAM Warning : 
    From function Foam::scalar Foam::janafThermo<EquationOfState>::limit(Foam::scalar) const [with EquationOfState = Foam::perfectGas<Foam::specie>; Foam::scalar = double]
    in file /home/student/OpenFOAM/student-13/run/OpenFOAM/OpenFOAM-13/src/thermophysicalModels/specie/lnInclude/janafThermoI.H at line 117
    attempt to use janafThermo<EquationOfState> out of temperature range 298.15 -> 20000;  T = 278.803
--> FOAM Warning : 
    From function Foam::scalar Foam::janafThermo<EquationOfState>::limit(Foam::scalar) const [with EquationOfState = Foam::perfectGas<Foam::specie>; Foam::scalar = double]
    in file /home/student/OpenFOAM/student-13/run/OpenFOAM/OpenFOAM-13/src/thermophysicalModels/specie/lnInclude/janafThermoI.H at line 117
    attempt to use janafThermo<EquationOfState> out of temperature range 298.15 -> 20000;  T = 278.746
--> FOAM Warning : 
    From function Foam::scalar Foam::janafThermo<EquationOfState>::limit(Foam::scalar) const [with EquationOfState = Foam::perfectGas<Foam::specie>; Foam::scalar = double]
    in file /home/student/OpenFOAM/student-13/run/OpenFOAM/OpenFOAM-13/src/thermophysicalModels/specie/lnInclude/janafThermoI.H at line 117
    attempt to use janafThermo<EquationOfState> out of temperature range 298.15 -> 20000;  T = 278.803
--> FOAM Warning : 
    From function Foam::scalar Foam::janafThermo<EquationOfState>::limit(Foam::scalar) const [with EquationOfState = Foam::perfectGas<Foam::specie>; Foam::scalar = double]
    in file /home/student/OpenFOAM/student-13/run/OpenFOAM/OpenFOAM-13/src/thermophysicalModels/specie/lnInclude/janafThermoI.H at line 117
    attempt to use janafThermo<EquationOfState> out of temperature range 298.15 -> 20000;  T = 278.746
--> FOAM Warning : 
    From function Foam::scalar Foam::janafThermo<EquationOfState>::limit(Foam::scalar) const [with EquationOfState = Foam::perfectGas<Foam::specie>; Foam::scalar = double]
    in file /home/student/OpenFOAM/student-13/run/OpenFOAM/OpenFOAM-13/src/thermophysicalModels/specie/lnInclude/janafThermoI.H at line 117
    attempt to use janafThermo<EquationOfState> out of temperature range 298.15 -> 20000;  T = 278.803
--> FOAM Warning : 
    From function Foam::scalar Foam::janafThermo<EquationOfState>::limit(Foam::scalar) const [with EquationOfState = Foam::perfectGas<Foam::specie>; Foam::scalar = double]
    in file /home/student/OpenFOAM/student-13/run/OpenFOAM/OpenFOAM-13/src/thermophysicalModels/specie/lnInclude/janafThermoI.H at line 117
    attempt to use janafThermo<EquationOfState> out of temperature range 298.15 -> 20000;  T = 278.746
--> FOAM Warning : 
    From function Foam::scalar Foam::janafThermo<EquationOfState>::limit(Foam::scalar) const [with EquationOfState = Foam::perfectGas<Foam::specie>; Foam::scalar = double]
    in file /home/student/OpenFOAM/student-13/run/OpenFOAM/OpenFOAM-13/src/thermophysicalModels/specie/lnInclude/janafThermoI.H at line 117
    attempt to use janafThermo<EquationOfState> out of temperature range 298.15 -> 20000;  T = 278.803
--> FOAM Warning : 
    From function Foam::scalar Foam::janafThermo<EquationOfState>::limit(Foam::scalar) const [with EquationOfState = Foam::perfectGas<Foam::specie>; Foam::scalar = double]
    in file /home/student/OpenFOAM/student-13/run/OpenFOAM/OpenFOAM-13/src/thermophysicalModels/specie/lnInclude/janafThermoI.H at line 117
    attempt to use janafThermo<EquationOfState> out of temperature range 298.15 -> 20000;  T = 278.746
--> FOAM Warning : 
    From function Foam::scalar Foam::janafThermo<EquationOfState>::limit(Foam::scalar) const [with EquationOfState = Foam::perfectGas<Foam::specie>; Foam::scalar = double]
    in file /home/student/OpenFOAM/student-13/run/OpenFOAM/OpenFOAM-13/src/thermophysicalModels/specie/lnInclude/janafThermoI.H at line 117
    attempt to use janafThermo<EquationOfState> out of temperature range 298.15 -> 20000;  T = 278.803
--> FOAM Warning : 
    From function Foam::scalar Foam::janafThermo<EquationOfState>::limit(Foam::scalar) const [with EquationOfState = Foam::perfectGas<Foam::specie>; Foam::scalar = double]
    in file /home/student/OpenFOAM/student-13/run/OpenFOAM/OpenFOAM-13/src/thermophysicalModels/specie/lnInclude/janafThermoI.H at line 117
    attempt to use janafThermo<EquationOfState> out of temperature range 298.15 -> 20000;  T = 278.746
--> FOAM Warning : 
    From function Foam::scalar Foam::janafThermo<EquationOfState>::limit(Foam::scalar) const [with EquationOfState = Foam::perfectGas<Foam::specie>; Foam::scalar = double]
    in file /home/student/OpenFOAM/student-13/run/OpenFOAM/OpenFOAM-13/src/thermophysicalModels/specie/lnInclude/janafThermoI.H at line 117
    attempt to use janafThermo<EquationOfState> out of temperature range 298.15 -> 20000;  T = 278.803
--> FOAM Warning : 
    From function Foam::scalar Foam::janafThermo<EquationOfState>::limit(Foam::scalar) const [with EquationOfState = Foam::perfectGas<Foam::specie>; Foam::scalar = double]
    in file /home/student/OpenFOAM/student-13/run/OpenFOAM/OpenFOAM-13/src/thermophysicalModels/specie/lnInclude/janafThermoI.H at line 117
    attempt to use janafThermo<EquationOfState> out of temperature range 298.15 -> 20000;  T = 278.746
--> FOAM Warning : 
    From function Foam::scalar Foam::janafThermo<EquationOfState>::limit(Foam::scalar) const [with EquationOfState = Foam::perfectGas<Foam::specie>; Foam::scalar = double]
    in file /home/student/OpenFOAM/student-13/run/OpenFOAM/OpenFOAM-13/src/thermophysicalModels/specie/lnInclude/janafThermoI.H at line 117
    attempt to use janafThermo<EquationOfState> out of temperature range 298.15 -> 20000;  T = 278.803
--> FOAM Warning : 
    From function Foam::scalar Foam::janafThermo<EquationOfState>::limit(Foam::scalar) const [with EquationOfState = Foam::perfectGas<Foam::specie>; Foam::scalar = double]
    in file /home/student/OpenFOAM/student-13/run/OpenFOAM/OpenFOAM-13/src/thermophysicalModels/specie/lnInclude/janafThermoI.H at line 117
    attempt to use janafThermo<EquationOfState> out of temperature range 298.15 -> 20000;  T = 278.746
--> FOAM Warning : 
    From function Foam::scalar Foam::janafThermo<EquationOfState>::limit(Foam::scalar) const [with EquationOfState = Foam::perfectGas<Foam::specie>; Foam::scalar = double]
    in file /home/student/OpenFOAM/student-13/run/OpenFOAM/OpenFOAM-13/src/thermophysicalModels/specie/lnInclude/janafThermoI.H at line 117
    attempt to use janafThermo<EquationOfState> out of temperature range 298.15 -> 20000;  T = 278.803
--> FOAM Warning : 
    From function Foam::scalar Foam::janafThermo<EquationOfState>::limit(Foam::scalar) const [with EquationOfState = Foam::perfectGas<Foam::specie>; Foam::scalar = double]
    in file /home/student/OpenFOAM/student-13/run/OpenFOAM/OpenFOAM-13/src/thermophysicalModels/specie/lnInclude/janafThermoI.H at line 117
    attempt to use janafThermo<EquationOfState> out of temperature range 298.15 -> 20000;  T = 278.746
--> FOAM Warning : 
    From function Foam::scalar Foam::janafThermo<EquationOfState>::limit(Foam::scalar) const [with EquationOfState = Foam::perfectGas<Foam::specie>; Foam::scalar = double]
    in file /home/student/OpenFOAM/student-13/run/OpenFOAM/OpenFOAM-13/src/thermophysicalModels/specie/lnInclude/janafThermoI.H at line 117
    attempt to use janafThermo<EquationOfState> out of temperature range 298.15 -> 20000;  T = 278.803
--> FOAM Warning : 
    From function Foam::scalar Foam::janafThermo<EquationOfState>::limit(Foam::scalar) const [with EquationOfState = Foam::perfectGas<Foam::specie>; Foam::scalar = double]
    in file /home/student/OpenFOAM/student-13/run/OpenFOAM/OpenFOAM-13/src/thermophysicalModels/specie/lnInclude/janafThermoI.H at line 117
    attempt to use janafThermo<EquationOfState> out of temperature range 298.15 -> 20000;  T = 278.746
--> FOAM Warning : 
    From function Foam::scalar Foam::janafThermo<EquationOfState>::limit(Foam::scalar) const [with EquationOfState = Foam::perfectGas<Foam::specie>; Foam::scalar = double]
    in file /home/student/OpenFOAM/student-13/run/OpenFOAM/OpenFOAM-13/src/thermophysicalModels/specie/lnInclude/janafThermoI.H at line 117
    attempt to use janafThermo<EquationOfState> out of temperature range 298.15 -> 20000;  T = 278.803
--> FOAM Warning : 
    From function Foam::scalar Foam::janafThermo<EquationOfState>::limit(Foam::scalar) const [with EquationOfState = Foam::perfectGas<Foam::specie>; Foam::scalar = double]
    in file /home/student/OpenFOAM/student-13/run/OpenFOAM/OpenFOAM-13/src/thermophysicalModels/specie/lnInclude/janafThermoI.H at line 117
    attempt to use janafThermo<EquationOfState> out of temperature range 298.15 -> 20000;  T = 278.746
--> FOAM Warning : 
    From function Foam::scalar Foam::janafThermo<EquationOfState>::limit(Foam::scalar) const [with EquationOfState = Foam::perfectGas<Foam::specie>; Foam::scalar = double]
    in file /home/student/OpenFOAM/student-13/run/OpenFOAM/OpenFOAM-13/src/thermophysicalModels/specie/lnInclude/janafThermoI.H at line 117
    attempt to use janafThermo<EquationOfState> out of temperature range 298.15 -> 20000;  T = 278.803
--> FOAM Warning : 
    From function Foam::scalar Foam::janafThermo<EquationOfState>::limit(Foam::scalar) const [with EquationOfState = Foam::perfectGas<Foam::specie>; Foam::scalar = double]
    in file /home/student/OpenFOAM/student-13/run/OpenFOAM/OpenFOAM-13/src/thermophysicalModels/specie/lnInclude/janafThermoI.H at line 117
    attempt to use janafThermo<EquationOfState> out of temperature range 298.15 -> 20000;  T = 278.746
--> FOAM Warning : 
    From function Foam::scalar Foam::janafThermo<EquationOfState>::limit(Foam::scalar) const [with EquationOfState = Foam::perfectGas<Foam::specie>; Foam::scalar = double]
    in file /home/student/OpenFOAM/student-13/run/OpenFOAM/OpenFOAM-13/src/thermophysicalModels/specie/lnInclude/janafThermoI.H at line 117
    attempt to use janafThermo<EquationOfState> out of temperature range 298.15 -> 20000;  T = 278.803
--> FOAM Warning : 
    From function Foam::scalar Foam::janafThermo<EquationOfState>::limit(Foam::scalar) const [with EquationOfState = Foam::perfectGas<Foam::specie>; Foam::scalar = double]
    in file /home/student/OpenFOAM/student-13/run/OpenFOAM/OpenFOAM-13/src/thermophysicalModels/specie/lnInclude/janafThermoI.H at line 117
    attempt to use janafThermo<EquationOfState> out of temperature range 298.15 -> 20000;  T = 278.746
--> FOAM Warning : 
    From function Foam::scalar Foam::janafThermo<EquationOfState>::limit(Foam::scalar) const [with EquationOfState = Foam::perfectGas<Foam::specie>; Foam::scalar = double]
    in file /home/student/OpenFOAM/student-13/run/OpenFOAM/OpenFOAM-13/src/thermophysicalModels/specie/lnInclude/janafThermoI.H at line 117
    attempt to use janafThermo<EquationOfState> out of temperature range 298.15 -> 20000;  T = 278.803
--> FOAM Warning : 
    From function Foam::scalar Foam::janafThermo<EquationOfState>::limit(Foam::scalar) const [with EquationOfState = Foam::perfectGas<Foam::specie>; Foam::scalar = double]
    in file /home/student/OpenFOAM/student-13/run/OpenFOAM/OpenFOAM-13/src/thermophysicalModels/specie/lnInclude/janafThermoI.H at line 117
    attempt to use janafThermo<EquationOfState> out of temperature range 298.15 -> 20000;  T = 278.746
--> FOAM Warning : 
    From function Foam::scalar Foam::janafThermo<EquationOfState>::limit(Foam::scalar) const [with EquationOfState = Foam::perfectGas<Foam::specie>; Foam::scalar = double]
    in file /home/student/OpenFOAM/student-13/run/OpenFOAM/OpenFOAM-13/src/thermophysicalModels/specie/lnInclude/janafThermoI.H at line 117
    attempt to use janafThermo<EquationOfState> out of temperature range 298.15 -> 20000;  T = 278.803
--> FOAM Warning : 
    From function Foam::scalar Foam::janafThermo<EquationOfState>::limit(Foam::scalar) const [with EquationOfState = Foam::perfectGas<Foam::specie>; Foam::scalar = double]
    in file /home/student/OpenFOAM/student-13/run/OpenFOAM/OpenFOAM-13/src/thermophysicalModels/specie/lnInclude/janafThermoI.H at line 117
    attempt to use janafThermo<EquationOfState> out of temperature range 298.15 -> 20000;  T = 278.746
--> FOAM Warning : 
    From function Foam::scalar Foam::janafThermo<EquationOfState>::limit(Foam::scalar) const [with EquationOfState = Foam::perfectGas<Foam::specie>; Foam::scalar = double]
    in file /home/student/OpenFOAM/student-13/run/OpenFOAM/OpenFOAM-13/src/thermophysicalModels/specie/lnInclude/janafThermoI.H at line 117
    attempt to use janafThermo<EquationOfState> out of temperature range 298.15 -> 20000;  T = 278.803
--> FOAM Warning : 
    From function Foam::scalar Foam::janafThermo<EquationOfState>::limit(Foam::scalar) const [with EquationOfState = Foam::perfectGas<Foam::specie>; Foam::scalar = double]
    in file /home/student/OpenFOAM/student-13/run/OpenFOAM/OpenFOAM-13/src/thermophysicalModels/specie/lnInclude/janafThermoI.H at line 117
    attempt to use janafThermo<EquationOfState> out of temperature range 298.15 -> 20000;  T = 278.746
--> FOAM Warning : 
    From function Foam::scalar Foam::janafThermo<EquationOfState>::limit(Foam::scalar) const [with EquationOfState = Foam::perfectGas<Foam::specie>; Foam::scalar = double]
    in file /home/student/OpenFOAM/student-13/run/OpenFOAM/OpenFOAM-13/src/thermophysicalModels/specie/lnInclude/janafThermoI.H at line 117
    attempt to use janafThermo<EquationOfState> out of temperature range 298.15 -> 20000;  T = 278.803
--> FOAM Warning : 
    From function Foam::scalar Foam::janafThermo<EquationOfState>::limit(Foam::scalar) const [with EquationOfState = Foam::perfectGas<Foam::specie>; Foam::scalar = double]
    in file /home/student/OpenFOAM/student-13/run/OpenFOAM/OpenFOAM-13/src/thermophysicalModels/specie/lnInclude/janafThermoI.H at line 117
    attempt to use janafThermo<EquationOfState> out of temperature range 298.15 -> 20000;  T = 278.746
--> FOAM Warning : 
    From function Foam::scalar Foam::janafThermo<EquationOfState>::limit(Foam::scalar) const [with EquationOfState = Foam::perfectGas<Foam::specie>; Foam::scalar = double]
    in file /home/student/OpenFOAM/student-13/run/OpenFOAM/OpenFOAM-13/src/thermophysicalModels/specie/lnInclude/janafThermoI.H at line 117
    attempt to use janafThermo<EquationOfState> out of temperature range 298.15 -> 20000;  T = 278.803
--> FOAM Warning : 
    From function Foam::scalar Foam::janafThermo<EquationOfState>::limit(Foam::scalar) const [with EquationOfState = Foam::perfectGas<Foam::specie>; Foam::scalar = double]
    in file /home/student/OpenFOAM/student-13/run/OpenFOAM/OpenFOAM-13/src/thermophysicalModels/specie/lnInclude/janafThermoI.H at line 117
    attempt to use janafThermo<EquationOfState> out of temperature range 298.15 -> 20000;  T = 278.746
--> FOAM Warning : 
    From function Foam::scalar Foam::janafThermo<EquationOfState>::limit(Foam::scalar) const [with EquationOfState = Foam::perfectGas<Foam::specie>; Foam::scalar = double]
    in file /home/student/OpenFOAM/student-13/run/OpenFOAM/OpenFOAM-13/src/thermophysicalModels/specie/lnInclude/janafThermoI.H at line 117
    attempt to use janafThermo<EquationOfState> out of temperature range 298.15 -> 20000;  T = 278.803
--> FOAM Warning : 
    From function Foam::scalar Foam::janafThermo<EquationOfState>::limit(Foam::scalar) const [with EquationOfState = Foam::perfectGas<Foam::specie>; Foam::scalar = double]
    in file /home/student/OpenFOAM/student-13/run/OpenFOAM/OpenFOAM-13/src/thermophysicalModels/specie/lnInclude/janafThermoI.H at line 117
    attempt to use janafThermo<EquationOfState> out of temperature range 298.15 -> 20000;  T = 278.746
--> FOAM Warning : 
    From function Foam::scalar Foam::janafThermo<EquationOfState>::limit(Foam::scalar) const [with EquationOfState = Foam::perfectGas<Foam::specie>; Foam::scalar = double]
    in file /home/student/OpenFOAM/student-13/run/OpenFOAM/OpenFOAM-13/src/thermophysicalModels/specie/lnInclude/janafThermoI.H at line 117
    attempt to use janafThermo<EquationOfState> out of temperature range 298.15 -> 20000;  T = 278.803
--> FOAM Warning : 
    From function Foam::scalar Foam::janafThermo<EquationOfState>::limit(Foam::scalar) const [with EquationOfState = Foam::perfectGas<Foam::specie>; Foam::scalar = double]
    in file /home/student/OpenFOAM/student-13/run/OpenFOAM/OpenFOAM-13/src/thermophysicalModels/specie/lnInclude/janafThermoI.H at line 117
    attempt to use janafThermo<EquationOfState> out of temperature range 298.15 -> 20000;  T = 278.746
--> FOAM Warning : 
    From function Foam::scalar Foam::janafThermo<EquationOfState>::limit(Foam::scalar) const [with EquationOfState = Foam::perfectGas<Foam::specie>; Foam::scalar = double]
    in file /home/student/OpenFOAM/student-13/run/OpenFOAM/OpenFOAM-13/src/thermophysicalModels/specie/lnInclude/janafThermoI.H at line 117
    attempt to use janafThermo<EquationOfState> out of temperature range 298.15 -> 20000;  T = 278.803
--> FOAM Warning : 
    From function Foam::scalar Foam::janafThermo<EquationOfState>::limit(Foam::scalar) const [with EquationOfState = Foam::perfectGas<Foam::specie>; Foam::scalar = double]
    in file /home/student/OpenFOAM/student-13/run/OpenFOAM/OpenFOAM-13/src/thermophysicalModels/specie/lnInclude/janafThermoI.H at line 117
    attempt to use janafThermo<EquationOfState> out of temperature range 298.15 -> 20000;  T = 278.746
--> FOAM Warning : 
    From function Foam::scalar Foam::janafThermo<EquationOfState>::limit(Foam::scalar) const [with EquationOfState = Foam::perfectGas<Foam::specie>; Foam::scalar = double]
    in file /home/student/OpenFOAM/student-13/run/OpenFOAM/OpenFOAM-13/src/thermophysicalModels/specie/lnInclude/janafThermoI.H at line 117
    attempt to use janafThermo<EquationOfState> out of temperature range 298.15 -> 20000;  T = 278.803
--> FOAM Warning : 
    From function Foam::scalar Foam::janafThermo<EquationOfState>::limit(Foam::scalar) const [with EquationOfState = Foam::perfectGas<Foam::specie>; Foam::scalar = double]
    in file /home/student/OpenFOAM/student-13/run/OpenFOAM/OpenFOAM-13/src/thermophysicalModels/specie/lnInclude/janafThermoI.H at line 117
    attempt to use janafThermo<EquationOfState> out of temperature range 298.15 -> 20000;  T = 278.746
--> FOAM Warning : 
    From function Foam::scalar Foam::janafThermo<EquationOfState>::limit(Foam::scalar) const [with EquationOfState = Foam::perfectGas<Foam::specie>; Foam::scalar = double]
    in file /home/student/OpenFOAM/student-13/run/OpenFOAM/OpenFOAM-13/src/thermophysicalModels/specie/lnInclude/janafThermoI.H at line 117
    attempt to use janafThermo<EquationOfState> out of temperature range 298.15 -> 20000;  T = 278.803
--> FOAM Warning : 
    From function Foam::scalar Foam::janafThermo<EquationOfState>::limit(Foam::scalar) const [with EquationOfState = Foam::perfectGas<Foam::specie>; Foam::scalar = double]
    in file /home/student/OpenFOAM/student-13/run/OpenFOAM/OpenFOAM-13/src/thermophysicalModels/specie/lnInclude/janafThermoI.H at line 117
    attempt to use janafThermo<EquationOfState> out of temperature range 298.15 -> 20000;  T = 278.746
--> FOAM Warning : 
    From function Foam::scalar Foam::janafThermo<EquationOfState>::limit(Foam::scalar) const [with EquationOfState = Foam::perfectGas<Foam::specie>; Foam::scalar = double]
    in file /home/student/OpenFOAM/student-13/run/OpenFOAM/OpenFOAM-13/src/thermophysicalModels/specie/lnInclude/janafThermoI.H at line 117
    attempt to use janafThermo<EquationOfState> out of temperature range 298.15 -> 20000;  T = 278.803
--> FOAM Warning : 
    From function Foam::scalar Foam::janafThermo<EquationOfState>::limit(Foam::scalar) const [with EquationOfState = Foam::perfectGas<Foam::specie>; Foam::scalar = double]
    in file /home/student/OpenFOAM/student-13/run/OpenFOAM/OpenFOAM-13/src/thermophysicalModels/specie/lnInclude/janafThermoI.H at line 117
    attempt to use janafThermo<EquationOfState> out of temperature range 298.15 -> 20000;  T = 278.746
--> FOAM Warning : 
    From function Foam::scalar Foam::janafThermo<EquationOfState>::limit(Foam::scalar) const [with EquationOfState = Foam::perfectGas<Foam::specie>; Foam::scalar = double]
    in file /home/student/OpenFOAM/student-13/run/OpenFOAM/OpenFOAM-13/src/thermophysicalModels/specie/lnInclude/janafThermoI.H at line 117
    attempt to use janafThermo<EquationOfState> out of temperature range 298.15 -> 20000;  T = 278.803
--> FOAM Warning : 
    From function Foam::scalar Foam::janafThermo<EquationOfState>::limit(Foam::scalar) const [with EquationOfState = Foam::perfectGas<Foam::specie>; Foam::scalar = double]
    in file /home/student/OpenFOAM/student-13/run/OpenFOAM/OpenFOAM-13/src/thermophysicalModels/specie/lnInclude/janafThermoI.H at line 117
    attempt to use janafThermo<EquationOfState> out of temperature range 298.15 -> 20000;  T = 278.746
--> FOAM Warning : 
    From function Foam::scalar Foam::janafThermo<EquationOfState>::limit(Foam::scalar) const [with EquationOfState = Foam::perfectGas<Foam::specie>; Foam::scalar = double]
    in file /home/student/OpenFOAM/student-13/run/OpenFOAM/OpenFOAM-13/src/thermophysicalModels/specie/lnInclude/janafThermoI.H at line 117
    attempt to use janafThermo<EquationOfState> out of temperature range 298.15 -> 20000;  T = 278.803
--> FOAM Warning : 
    From function Foam::scalar Foam::janafThermo<EquationOfState>::limit(Foam::scalar) const [with EquationOfState = Foam::perfectGas<Foam::specie>; Foam::scalar = double]
    in file /home/student/OpenFOAM/student-13/run/OpenFOAM/OpenFOAM-13/src/thermophysicalModels/specie/lnInclude/janafThermoI.H at line 117
    attempt to use janafThermo<EquationOfState> out of temperature range 298.15 -> 20000;  T = 278.746
--> FOAM Warning : 
    From function Foam::scalar Foam::janafThermo<EquationOfState>::limit(Foam::scalar) const [with EquationOfState = Foam::perfectGas<Foam::specie>; Foam::scalar = double]
    in file /home/student/OpenFOAM/student-13/run/OpenFOAM/OpenFOAM-13/src/thermophysicalModels/specie/lnInclude/janafThermoI.H at line 117
    attempt to use janafThermo<EquationOfState> out of temperature range 298.15 -> 20000;  T = 278.803
--> FOAM Warning : 
    From function Foam::scalar Foam::janafThermo<EquationOfState>::limit(Foam::scalar) const [with EquationOfState = Foam::perfectGas<Foam::specie>; Foam::scalar = double]
    in file /home/student/OpenFOAM/student-13/run/OpenFOAM/OpenFOAM-13/src/thermophysicalModels/specie/lnInclude/janafThermoI.H at line 117
    attempt to use janafThermo<EquationOfState> out of temperature range 298.15 -> 20000;  T = 278.746
--> FOAM Warning : 
    From function Foam::scalar Foam::janafThermo<EquationOfState>::limit(Foam::scalar) const [with EquationOfState = Foam::perfectGas<Foam::specie>; Foam::scalar = double]
    in file /home/student/OpenFOAM/student-13/run/OpenFOAM/OpenFOAM-13/src/thermophysicalModels/specie/lnInclude/janafThermoI.H at line 117
    attempt to use janafThermo<EquationOfState> out of temperature range 298.15 -> 20000;  T = 278.803
--> FOAM Warning : 
    From function Foam::scalar Foam::janafThermo<EquationOfState>::limit(Foam::scalar) const [with EquationOfState = Foam::perfectGas<Foam::specie>; Foam::scalar = double]
    in file /home/student/OpenFOAM/student-13/run/OpenFOAM/OpenFOAM-13/src/thermophysicalModels/specie/lnInclude/janafThermoI.H at line 117
    attempt to use janafThermo<EquationOfState> out of temperature range 298.15 -> 20000;  T = 278.746
--> FOAM Warning : 
    From function Foam::scalar Foam::janafThermo<EquationOfState>::limit(Foam::scalar) const [with EquationOfState = Foam::perfectGas<Foam::specie>; Foam::scalar = double]
    in file /home/student/OpenFOAM/student-13/run/OpenFOAM/OpenFOAM-13/src/thermophysicalModels/specie/lnInclude/janafThermoI.H at line 117
    attempt to use janafThermo<EquationOfState> out of temperature range 298.15 -> 20000;  T = 278.803
[...]
DILUPBiCG:  Solving for NO+, Initial residual = 0, Final residual = 0, No Iterations 0
DILUPBiCG:  Solving for N2+, Initial residual = 0, Final residual = 0, No Iterations 0
DILUPBiCG:  Solving for O+, Initial residual = 0, Final residual = 0, No Iterations 0
DILUPBiCG:  Solving for O2+, Initial residual = 0, Final residual = 0, No Iterations 0
smoothSolver:  Solving for e, Initial residual = 0.000814458, Final residual = 2.90916e-14, No Iterations 2
implement your two-temperature model here
PIMPLE: Iteration 2
diagonal:  Solving for rho, Initial residual = 0, Final residual = 0, No Iterations 0
smoothSolver:  Solving for Ux, Initial residual = 3.45086e-05, Final residual = 8.4533e-16, No Iterations 2
DILUPBiCG:  Solving for O2, Initial residual = 0.00206104, Final residual = 4.55121e-19, No Iterations 1
DILUPBiCG:  Solving for O, Initial residual = 0, Final residual = 0, No Iterations 0
DILUPBiCG:  Solving for N, Initial residual = 0, Final residual = 0, No Iterations 0
DILUPBiCG:  Solving for NO, Initial residual = 0, Final residual = 0, No Iterations 0
DILUPBiCG:  Solving for e-, Initial residual = 0, Final residual = 0, No Iterations 0
DILUPBiCG:  Solving for N+, Initial residual = 0, Final residual = 0, No Iterations 0
DILUPBiCG:  Solving for NO+, Initial residual = 0, Final residual = 0, No Iterations 0
DILUPBiCG:  Solving for N2+, Initial residual = 0, Final residual = 0, No Iterations 0
DILUPBiCG:  Solving for O+, Initial residual = 0, Final residual = 0, No Iterations 0
DILUPBiCG:  Solving for O2+, Initial residual = 0, Final residual = 0, No Iterations 0
smoothSolver:  Solving for e, Initial residual = 0.000247788, Final residual = 8.09541e-15, No Iterations 2
implement your two-temperature model here
ExecutionTime = 6.46931 s  ClockTime = 7 s

Courant Number mean: 0.13338 max: 0.183181
Time = 0.00697s

PIMPLE: Iteration 1
diagonal:  Solving for rho, Initial residual = 0, Final residual = 0, No Iterations 0
smoothSolver:  Solving for Ux, Initial residual = 0.00024879, Final residual = 2.79675e-15, No Iterations 2
DILUPBiCG:  Solving for O2, Initial residual = 0.00206948, Final residual = 6.78335e-19, No Iterations 1
DILUPBiCG:  Solving for O, Initial residual = 0, Final residual = 0, No Iterations 0
DILUPBiCG:  Solving for N, Initial residual = 0, Final residual = 0, No Iterations 0
DILUPBiCG:  Solving for NO, Initial residual = 0, Final residual = 0, No Iterations 0
DILUPBiCG:  Solving for e-, Initial residual = 0, Final residual = 0, No Iterations 0
DILUPBiCG:  Solving for N+, Initial residual = 0, Final residual = 0, No Iterations 0
DILUPBiCG:  Solving for NO+, Initial residual = 0, Final residual = 0, No Iterations 0
DILUPBiCG:  Solving for N2+, Initial residual = 0, Final residual = 0, No Iterations 0
DILUPBiCG:  Solving for O+, Initial residual = 0, Final residual = 0, No Iterations 0
DILUPBiCG:  Solving for O2+, Initial residual = 0, Final residual = 0, No Iterations 0
smoothSolver:  Solving for e, Initial residual = 0.000813357, Final residual = 2.89616e-14, No Iterations 2
implement your two-temperature model here
PIMPLE: Iteration 2
diagonal:  Solving for rho, Initial residual = 0, Final residual = 0, No Iterations 0
smoothSolver:  Solving for Ux, Initial residual = 3.84128e-05, Final residual = 9.29139e-16, No Iterations 2
DILUPBiCG:  Solving for O2, Initial residual = 0.00199596, Final residual = 2.46968e-15, No Iterations 1
DILUPBiCG:  Solving for O, Initial residual = 0, Final residual = 0, No Iterations 0
DILUPBiCG:  Solving for N, Initial residual = 0, Final residual = 0, No Iterations 0
DILUPBiCG:  Solving for NO, Initial residual = 0, Final residual = 0, No Iterations 0
DILUPBiCG:  Solving for e-, Initial residual = 0, Final residual = 0, No Iterations 0
DILUPBiCG:  Solving for N+, Initial residual = 0, Final residual = 0, No Iterations 0
DILUPBiCG:  Solving for NO+, Initial residual = 0, Final residual = 0, No Iterations 0
DILUPBiCG:  Solving for N2+, Initial residual = 0, Final residual = 0, No Iterations 0
DILUPBiCG:  Solving for O+, Initial residual = 0, Final residual = 0, No Iterations 0
DILUPBiCG:  Solving for O2+, Initial residual = 0, Final residual = 0, No Iterations 0
smoothSolver:  Solving for e, Initial residual = 0.000255446, Final residual = 8.8208e-15, No Iterations 2
implement your two-temperature model here
ExecutionTime = 6.47435 s  ClockTime = 7 s

Courant Number mean: 0.133411 max: 0.183181
Time = 0.006975s

PIMPLE: Iteration 1
diagonal:  Solving for rho, Initial residual = 0, Final residual = 0, No Iterations 0
smoothSolver:  Solving for Ux, Initial residual = 0.000248447, Final residual = 2.7869e-15, No Iterations 2
DILUPBiCG:  Solving for O2, Initial residual = 0.00205415, Final residual = 4.63829e-19, No Iterations 1
DILUPBiCG:  Solving for O, Initial residual = 0, Final residual = 0, No Iterations 0
DILUPBiCG:  Solving for N, Initial residual = 0, Final residual = 0, No Iterations 0
DILUPBiCG:  Solving for NO, Initial residual = 0, Final residual = 0, No Iterations 0
DILUPBiCG:  Solving for e-, Initial residual = 0, Final residual = 0, No Iterations 0
DILUPBiCG:  Solving for N+, Initial residual = 0, Final residual = 0, No Iterations 0
DILUPBiCG:  Solving for NO+, Initial residual = 0, Final residual = 0, No Iterations 0
DILUPBiCG:  Solving for N2+, Initial residual = 0, Final residual = 0, No Iterations 0
DILUPBiCG:  Solving for O+, Initial residual = 0, Final residual = 0, No Iterations 0
DILUPBiCG:  Solving for O2+, Initial residual = 0, Final residual = 0, No Iterations 0
smoothSolver:  Solving for e, Initial residual = 0.000811679, Final residual = 2.88193e-14, No Iterations 2
implement your two-temperature model here
PIMPLE: Iteration 2
diagonal:  Solving for rho, Initial residual = 0, Final residual = 0, No Iterations 0
smoothSolver:  Solving for Ux, Initial residual = 3.94105e-05, Final residual = 9.38016e-16, No Iterations 2
DILUPBiCG:  Solving for O2, Initial residual = 0.0020219, Final residual = 2.89498e-19, No Iterations 1
DILUPBiCG:  Solving for O, Initial residual = 0, Final residual = 0, No Iterations 0
DILUPBiCG:  Solving for N, Initial residual = 0, Final residual = 0, No Iterations 0
DILUPBiCG:  Solving for NO, Initial residual = 0, Final residual = 0, No Iterations 0
DILUPBiCG:  Solving for e-, Initial residual = 0, Final residual = 0, No Iterations 0
DILUPBiCG:  Solving for N+, Initial residual = 0, Final residual = 0, No Iterations 0
DILUPBiCG:  Solving for NO+, Initial residual = 0, Final residual = 0, No Iterations 0
DILUPBiCG:  Solving for N2+, Initial residual = 0, Final residual = 0, No Iterations 0
DILUPBiCG:  Solving for O+, Initial residual = 0, Final residual = 0, No Iterations 0
DILUPBiCG:  Solving for O2+, Initial residual = 0, Final residual = 0, No Iterations 0
smoothSolver:  Solving for e, Initial residual = 0.000261294, Final residual = 9.24227e-15, No Iterations 2
implement your two-temperature model here
ExecutionTime = 6.47938 s  ClockTime = 7 s

Courant Number mean: 0.133442 max: 0.183181
Time = 0.00698s

PIMPLE: Iteration 1
diagonal:  Solving for rho, Initial residual = 0, Final residual = 0, No Iterations 0
smoothSolver:  Solving for Ux, Initial residual = 0.000248401, Final residual = 2.79617e-15, No Iterations 2
DILUPBiCG:  Solving for O2, Initial residual = 0.0020791, Final residual = 9.10502e-19, No Iterations 1
DILUPBiCG:  Solving for O, Initial residual = 0, Final residual = 0, No Iterations 0
DILUPBiCG:  Solving for N, Initial residual = 0, Final residual = 0, No Iterations 0
DILUPBiCG:  Solving for NO, Initial residual = 0, Final residual = 0, No Iterations 0
DILUPBiCG:  Solving for e-, Initial residual = 0, Final residual = 0, No Iterations 0
DILUPBiCG:  Solving for N+, Initial residual = 0, Final residual = 0, No Iterations 0
DILUPBiCG:  Solving for NO+, Initial residual = 0, Final residual = 0, No Iterations 0
DILUPBiCG:  Solving for N2+, Initial residual = 0, Final residual = 0, No Iterations 0
DILUPBiCG:  Solving for O+, Initial residual = 0, Final residual = 0, No Iterations 0
DILUPBiCG:  Solving for O2+, Initial residual = 0, Final residual = 0, No Iterations 0
smoothSolver:  Solving for e, Initial residual = 0.000811466, Final residual = 2.89291e-14, No Iterations 2
implement your two-temperature model here
PIMPLE: Iteration 2
diagonal:  Solving for rho, Initial residual = 0, Final residual = 0, No Iterations 0
smoothSolver:  Solving for Ux, Initial residual = 3.83125e-05, Final residual = 8.98905e-16, No Iterations 2
DILUPBiCG:  Solving for O2, Initial residual = 0.00205804, Final residual = 2.70021e-18, No Iterations 1
DILUPBiCG:  Solving for O, Initial residual = 0, Final residual = 0, No Iterations 0
DILUPBiCG:  Solving for N, Initial residual = 0, Final residual = 0, No Iterations 0
DILUPBiCG:  Solving for NO, Initial residual = 0, Final residual = 0, No Iterations 0
DILUPBiCG:  Solving for e-, Initial residual = 0, Final residual = 0, No Iterations 0
DILUPBiCG:  Solving for N+, Initial residual = 0, Final residual = 0, No Iterations 0
DILUPBiCG:  Solving for NO+, Initial residual = 0, Final residual = 0, No Iterations 0
DILUPBiCG:  Solving for N2+, Initial residual = 0, Final residual = 0, No Iterations 0
DILUPBiCG:  Solving for O+, Initial residual = 0, Final residual = 0, No Iterations 0
DILUPBiCG:  Solving for O2+, Initial residual = 0, Final residual = 0, No Iterations 0
smoothSolver:  Solving for e, Initial residual = 0.000262251, Final residual = 9.21532e-15, No Iterations 2
implement your two-temperature model here
ExecutionTime = 6.48441 s  ClockTime = 7 s

Courant Number mean: 0.133473 max: 0.183181
Time = 0.006985s

PIMPLE: Iteration 1
diagonal:  Solving for rho, Initial residual = 0, Final residual = 0, No Iterations 0
smoothSolver:  Solving for Ux, Initial residual = 0.0002488, Final residual = 2.81593e-15, No Iterations 2
DILUPBiCG:  Solving for O2, Initial residual = 0.00195464, Final residual = 4.73366e-19, No Iterations 1
DILUPBiCG:  Solving for O, Initial residual = 0, Final residual = 0, No Iterations 0
DILUPBiCG:  Solving for N, Initial residual = 0, Final residual = 0, No Iterations 0
DILUPBiCG:  Solving for NO, Initial residual = 0, Final residual = 0, No Iterations 0
DILUPBiCG:  Solving for e-, Initial residual = 0, Final residual = 0, No Iterations 0
DILUPBiCG:  Solving for N+, Initial residual = 0, Final residual = 0, No Iterations 0
DILUPBiCG:  Solving for NO+, Initial residual = 0, Final residual = 0, No Iterations 0
DILUPBiCG:  Solving for N2+, Initial residual = 0, Final residual = 0, No Iterations 0
DILUPBiCG:  Solving for O+, Initial residual = 0, Final residual = 0, No Iterations 0
DILUPBiCG:  Solving for O2+, Initial residual = 0, Final residual = 0, No Iterations 0
smoothSolver:  Solving for e, Initial residual = 0.000813338, Final residual = 2.9209e-14, No Iterations 2
implement your two-temperature model here
PIMPLE: Iteration 2
diagonal:  Solving for rho, Initial residual = 0, Final residual = 0, No Iterations 0
smoothSolver:  Solving for Ux, Initial residual = 3.56955e-05, Final residual = 8.29854e-16, No Iterations 2
DILUPBiCG:  Solving for O2, Initial residual = 0.00197996, Final residual = 4.62577e-19, No Iterations 1
DILUPBiCG:  Solving for O, Initial residual = 0, Final residual = 0, No Iterations 0
DILUPBiCG:  Solving for N, Initial residual = 0, Final residual = 0, No Iterations 0
DILUPBiCG:  Solving for NO, Initial residual = 0, Final residual = 0, No Iterations 0
DILUPBiCG:  Solving for e-, Initial residual = 0, Final residual = 0, No Iterations 0
DILUPBiCG:  Solving for N+, Initial residual = 0, Final residual = 0, No Iterations 0
DILUPBiCG:  Solving for NO+, Initial residual = 0, Final residual = 0, No Iterations 0
DILUPBiCG:  Solving for N2+, Initial residual = 0, Final residual = 0, No Iterations 0
DILUPBiCG:  Solving for O+, Initial residual = 0, Final residual = 0, No Iterations 0
DILUPBiCG:  Solving for O2+, Initial residual = 0, Final residual = 0, No Iterations 0
smoothSolver:  Solving for e, Initial residual = 0.000258711, Final residual = 8.78816e-15, No Iterations 2
implement your two-temperature model here
ExecutionTime = 6.48949 s  ClockTime = 7 s

Courant Number mean: 0.133504 max: 0.183181
Time = 0.00699s

PIMPLE: Iteration 1
diagonal:  Solving for rho, Initial residual = 0, Final residual = 0, No Iterations 0
smoothSolver:  Solving for Ux, Initial residual = 0.000249055, Final residual = 2.82183e-15, No Iterations 2
DILUPBiCG:  Solving for O2, Initial residual = 0.00201054, Final residual = 4.53232e-19, No Iterations 1
DILUPBiCG:  Solving for O, Initial residual = 0, Final residual = 0, No Iterations 0
DILUPBiCG:  Solving for N, Initial residual = 0, Final residual = 0, No Iterations 0
DILUPBiCG:  Solving for NO, Initial residual = 0, Final residual = 0, No Iterations 0
DILUPBiCG:  Solving for e-, Initial residual = 0, Final residual = 0, No Iterations 0
DILUPBiCG:  Solving for N+, Initial residual = 0, Final residual = 0, No Iterations 0
DILUPBiCG:  Solving for NO+, Initial residual = 0, Final residual = 0, No Iterations 0
DILUPBiCG:  Solving for N2+, Initial residual = 0, Final residual = 0, No Iterations 0
DILUPBiCG:  Solving for O+, Initial residual = 0, Final residual = 0, No Iterations 0
DILUPBiCG:  Solving for O2+, Initial residual = 0, Final residual = 0, No Iterations 0
smoothSolver:  Solving for e, Initial residual = 0.000814336, Final residual = 2.92668e-14, No Iterations 2
implement your two-temperature model here
PIMPLE: Iteration 2
diagonal:  Solving for rho, Initial residual = 0, Final residual = 0, No Iterations 0
smoothSolver:  Solving for Ux, Initial residual = 3.24092e-05, Final residual = 7.56616e-16, No Iterations 2
DILUPBiCG:  Solving for O2, Initial residual = 0.00205069, Final residual = 2.09366e-19, No Iterations 1
DILUPBiCG:  Solving for O, Initial residual = 0, Final residual = 0, No Iterations 0
DILUPBiCG:  Solving for N, Initial residual = 0, Final residual = 0, No Iterations 0
DILUPBiCG:  Solving for NO, Initial residual = 0, Final residual = 0, No Iterations 0
DILUPBiCG:  Solving for e-, Initial residual = 0, Final residual = 0, No Iterations 0
DILUPBiCG:  Solving for N+, Initial residual = 0, Final residual = 0, No Iterations 0
DILUPBiCG:  Solving for NO+, Initial residual = 0, Final residual = 0, No Iterations 0
DILUPBiCG:  Solving for N2+, Initial residual = 0, Final residual = 0, No Iterations 0
DILUPBiCG:  Solving for O+, Initial residual = 0, Final residual = 0, No Iterations 0
DILUPBiCG:  Solving for O2+, Initial residual = 0, Final residual = 0, No Iterations 0
smoothSolver:  Solving for e, Initial residual = 0.000253349, Final residual = 8.32306e-15, No Iterations 2
implement your two-temperature model here
ExecutionTime = 6.4947 s  ClockTime = 7 s

Courant Number mean: 0.133534 max: 0.183181
Time = 0.006995s

PIMPLE: Iteration 1
diagonal:  Solving for rho, Initial residual = 0, Final residual = 0, No Iterations 0
smoothSolver:  Solving for Ux, Initial residual = 0.000248926, Final residual = 2.8102e-15, No Iterations 2
DILUPBiCG:  Solving for O2, Initial residual = 0.00202155, Final residual = 1.32642e-18, No Iterations 1
DILUPBiCG:  Solving for O, Initial residual = 0, Final residual = 0, No Iterations 0
DILUPBiCG:  Solving for N, Initial residual = 0, Final residual = 0, No Iterations 0
DILUPBiCG:  Solving for NO, Initial residual = 0, Final residual = 0, No Iterations 0
DILUPBiCG:  Solving for e-, Initial residual = 0, Final residual = 0, No Iterations 0
DILUPBiCG:  Solving for N+, Initial residual = 0, Final residual = 0, No Iterations 0
DILUPBiCG:  Solving for NO+, Initial residual = 0, Final residual = 0, No Iterations 0
DILUPBiCG:  Solving for N2+, Initial residual = 0, Final residual = 0, No Iterations 0
DILUPBiCG:  Solving for O+, Initial residual = 0, Final residual = 0, No Iterations 0
DILUPBiCG:  Solving for O2+, Initial residual = 0, Final residual = 0, No Iterations 0
smoothSolver:  Solving for e, Initial residual = 0.000813469, Final residual = 2.91258e-14, No Iterations 2
implement your two-temperature model here
PIMPLE: Iteration 2
diagonal:  Solving for rho, Initial residual = 0, Final residual = 0, No Iterations 0
smoothSolver:  Solving for Ux, Initial residual = 2.95829e-05, Final residual = 7.10162e-16, No Iterations 2
DILUPBiCG:  Solving for O2, Initial residual = 0.00188934, Final residual = 2.06841e-18, No Iterations 1
DILUPBiCG:  Solving for O, Initial residual = 0, Final residual = 0, No Iterations 0
DILUPBiCG:  Solving for N, Initial residual = 0, Final residual = 0, No Iterations 0
DILUPBiCG:  Solving for NO, Initial residual = 0, Final residual = 0, No Iterations 0
DILUPBiCG:  Solving for e-, Initial residual = 0, Final residual = 0, No Iterations 0
DILUPBiCG:  Solving for N+, Initial residual = 0, Final residual = 0, No Iterations 0
DILUPBiCG:  Solving for NO+, Initial residual = 0, Final residual = 0, No Iterations 0
DILUPBiCG:  Solving for N2+, Initial residual = 0, Final residual = 0, No Iterations 0
DILUPBiCG:  Solving for O+, Initial residual = 0, Final residual = 0, No Iterations 0
DILUPBiCG:  Solving for O2+, Initial residual = 0, Final residual = 0, No Iterations 0
smoothSolver:  Solving for e, Initial residual = 0.000249582, Final residual = 8.15441e-15, No Iterations 2
implement your two-temperature model here
ExecutionTime = 6.49988 s  ClockTime = 7 s

Courant Number mean: 0.133566 max: 0.183181
Time = 0.007s

PIMPLE: Iteration 1
diagonal:  Solving for rho, Initial residual = 0, Final residual = 0, No Iterations 0
smoothSolver:  Solving for Ux, Initial residual = 0.000248727, Final residual = 2.80179e-15, No Iterations 2
DILUPBiCG:  Solving for O2, Initial residual = 0.00201275, Final residual = 8.79347e-19, No Iterations 1
DILUPBiCG:  Solving for O, Initial residual = 0, Final residual = 0, No Iterations 0
DILUPBiCG:  Solving for N, Initial residual = 0, Final residual = 0, No Iterations 0
DILUPBiCG:  Solving for NO, Initial residual = 0, Final residual = 0, No Iterations 0
DILUPBiCG:  Solving for e-, Initial residual = 0, Final residual = 0, No Iterations 0
DILUPBiCG:  Solving for N+, Initial residual = 0, Final residual = 0, No Iterations 0
DILUPBiCG:  Solving for NO+, Initial residual = 0, Final residual = 0, No Iterations 0
DILUPBiCG:  Solving for N2+, Initial residual = 0, Final residual = 0, No Iterations 0
DILUPBiCG:  Solving for O+, Initial residual = 0, Final residual = 0, No Iterations 0
DILUPBiCG:  Solving for O2+, Initial residual = 0, Final residual = 0, No Iterations 0
smoothSolver:  Solving for e, Initial residual = 0.000812461, Final residual = 2.90022e-14, No Iterations 2
implement your two-temperature model here
PIMPLE: Iteration 2
diagonal:  Solving for rho, Initial residual = 0, Final residual = 0, No Iterations 0
smoothSolver:  Solving for Ux, Initial residual = 3.53038e-05, Final residual = 8.64894e-16, No Iterations 2
DILUPBiCG:  Solving for O2, Initial residual = 0.00205027, Final residual = 1.31752e-18, No Iterations 1
DILUPBiCG:  Solving for O, Initial residual = 0, Final residual = 0, No Iterations 0
DILUPBiCG:  Solving for N, Initial residual = 0, Final residual = 0, No Iterations 0
DILUPBiCG:  Solving for NO, Initial residual = 0, Final residual = 0, No Iterations 0
DILUPBiCG:  Solving for e-, Initial residual = 0, Final residual = 0, No Iterations 0
DILUPBiCG:  Solving for N+, Initial residual = 0, Final residual = 0, No Iterations 0
DILUPBiCG:  Solving for NO+, Initial residual = 0, Final residual = 0, No Iterations 0
DILUPBiCG:  Solving for N2+, Initial residual = 0, Final residual = 0, No Iterations 0
DILUPBiCG:  Solving for O+, Initial residual = 0, Final residual = 0, No Iterations 0
DILUPBiCG:  Solving for O2+, Initial residual = 0, Final residual = 0, No Iterations 0
smoothSolver:  Solving for e, Initial residual = 0.000246657, Final residual = 8.03753e-15, No Iterations 2
implement your two-temperature model here
ExecutionTime = 6.50761 s  ClockTime = 7 s

End

